@<TRIPOS>MOLECULE
MOL
   14   13    0    0    0




@<TRIPOS>ATOM
   1   C1        2.6690    1.0520   -1.8840   c3 0  -0.0654
   2   C2        1.2420    0.8100   -1.4650   c3 0  -0.0564
   3   C3        1.1660    0.0560   -0.1540   c3 0  -0.0564
   4   C4       -0.2610   -0.1870    0.2650   c3 0  -0.0654
   5   H1        3.2090    1.6540   -1.1130   hc 0   0.0230
   6   H2        3.2110    0.0850   -2.0160   hc 0   0.0230
   7   H3        2.7000    1.6090   -2.8520   hc 0   0.0230
   8   H4        0.7070    1.7910   -1.3620   hc 0   0.0263
   9   H5        0.7090    0.2270   -2.2620   hc 0   0.0263
  10   H6        1.7010   -0.9250   -0.2580   hc 0   0.0263
  11   H7        1.6990    0.6390    0.6420   hc 0   0.0263
  12   H8       -0.2920   -0.7430    1.2320   hc 0   0.0230
  13   H9       -0.8030    0.7810    0.3960   hc 0   0.0230
  14  H10       -0.8010   -0.7880   -0.5060   hc 0   0.0230
@<TRIPOS>BOND
    1     1     2  1
    2     1     5  1
    3     1     6  1
    4     1     7  1
    5     2     3  1
    6     2     8  1
    7     2     9  1
    8     3     4  1
    9     3    10  1
   10     3    11  1
   11     4    12  1
   12     4    13  1
   13     4    14  1
