@<TRIPOS>MOLECULE
MOL
   14   13    0    0    0




@<TRIPOS>ATOM
   1   C1        2.6690    1.0520   -1.8840   c3 0 -0.06  0.0000
   2   C2        1.2420    0.8100   -1.4650   c3 0 -0.05  0.0000
   3   C3        1.1660    0.0560   -0.1540   c3 0 -0.05  0.0000
   4   C4       -0.2610   -0.1870    0.2650   c3 0 -0.06  0.0000
   5   H1        3.2090    1.6540   -1.1130   hc 0 0.023  0.0000
   6   H2        3.2110    0.0850   -2.0160   hc 0 0.023  0.0000
   7   H3        2.7000    1.6090   -2.8520   hc 0 0.023  0.0000
   8   H4        0.7070    1.7910   -1.3620   hc 0 0.026  0.0000
   9   H5        0.7090    0.2270   -2.2620   hc 0 0.026  0.0000
  10   H6        1.7010   -0.9250   -0.2580   hc 0 0.026  0.0000
  11   H7        1.6990    0.6390    0.6420   hc 0 0.026  0.0000
  12   H8       -0.2920   -0.7430    1.2320   hc 0 0.023  0.0000
  13   H9       -0.8030    0.7810    0.3960   hc 0 0.023  0.0000
  14  H10       -0.8010   -0.7880   -0.5060   hc 0 0.023  0.0000
@<TRIPOS>BOND
    1     1     2  1
    2     1     5  1
    3     1     6  1
    4     1     7  1
    5     2     3  1
    6     2     8  1
    7     2     9  1
    8     3     4  1
    9     3    10  1
   10     3    11  1
   11     4    12  1
   12     4    13  1
   13     4    14  1

@<TRIPOS>MOLECULE
MOL
   14   13    0    0    0




@<TRIPOS>ATOM
   1   C1        2.6690    1.0520   -1.8840   c3 0 -0.06  0.0000
   2   C2        1.2420    0.8100   -1.4650   c3 0 -0.05  0.0000
   3   C3        1.1660    0.0560   -0.1540   c3 0 -0.05  0.0000
   4   C4       -0.2610   -0.1870    0.2650   c3 0 -0.06  0.0000
   5   H1        3.2141    1.6386   -1.1047   hc 0 0.023  0.0000
   6   H2        3.2059    0.0847   -2.0335   hc 0 0.023  0.0000
   7   H3        2.7000    1.6248   -2.8427   hc 0 0.023  0.0000
   8   H4        0.7070    1.7910   -1.3620   hc 0 0.026  0.0000
   9   H5        0.7090    0.2270   -2.2620   hc 0 0.026  0.0000
  10   H6        1.7010   -0.9250   -0.2580   hc 0 0.026  0.0000
  11   H7        1.6990    0.6390    0.6420   hc 0 0.026  0.0000
  12   H8       -0.2920   -0.7430    1.2320   hc 0 0.023  0.0000
  13   H9       -0.8030    0.7810    0.3960   hc 0 0.023  0.0000
  14  H10       -0.8010   -0.7880   -0.5060   hc 0 0.023  0.0000
@<TRIPOS>BOND
    1     1     2  1
    2     1     5  1
    3     1     6  1
    4     1     7  1
    5     2     3  1
    6     2     8  1
    7     2     9  1
    8     3     4  1
    9     3    10  1
   10     3    11  1
   11     4    12  1
   12     4    13  1
   13     4    14  1

@<TRIPOS>MOLECULE
MOL
   14   13    0    0    0




@<TRIPOS>ATOM
   1   C1        2.6690    1.0520   -1.8840   c3 0 -0.06  0.0000
   2   C2        1.2420    0.8100   -1.4650   c3 0 -0.05  0.0000
   3   C3        1.1660    0.0560   -0.1540   c3 0 -0.05  0.0000
   4   C4       -0.2610   -0.1870    0.2650   c3 0 -0.06  0.0000
   5   H1        3.2191    1.6229   -1.0967   hc 0 0.023  0.0000
   6   H2        3.2008    0.0847   -2.0510   hc 0 0.023  0.0000
   7   H3        2.7002    1.6404   -2.8332   hc 0 0.023  0.0000
   8   H4        0.7070    1.7910   -1.3620   hc 0 0.026  0.0000
   9   H5        0.7090    0.2270   -2.2620   hc 0 0.026  0.0000
  10   H6        1.7010   -0.9250   -0.2580   hc 0 0.026  0.0000
  11   H7        1.6990    0.6390    0.6420   hc 0 0.026  0.0000
  12   H8       -0.2920   -0.7430    1.2320   hc 0 0.023  0.0000
  13   H9       -0.8030    0.7810    0.3960   hc 0 0.023  0.0000
  14  H10       -0.8010   -0.7880   -0.5060   hc 0 0.023  0.0000
@<TRIPOS>BOND
    1     1     2  1
    2     1     5  1
    3     1     6  1
    4     1     7  1
    5     2     3  1
    6     2     8  1
    7     2     9  1
    8     3     4  1
    9     3    10  1
   10     3    11  1
   11     4    12  1
   12     4    13  1
   13     4    14  1

@<TRIPOS>MOLECULE
MOL
   14   13    0    0    0




@<TRIPOS>ATOM
   1   C1        2.6690    1.0520   -1.8840   c3 0 -0.06  0.0000
   2   C2        1.2420    0.8100   -1.4650   c3 0 -0.05  0.0000
   3   C3        1.1660    0.0560   -0.1540   c3 0 -0.05  0.0000
   4   C4       -0.2610   -0.1870    0.2650   c3 0 -0.06  0.0000
   5   H1        3.2240    1.6072   -1.0889   hc 0 0.023  0.0000
   6   H2        3.1956    0.0851   -2.0685   hc 0 0.023  0.0000
   7   H3        2.7004    1.6558   -2.8235   hc 0 0.023  0.0000
   8   H4        0.7070    1.7910   -1.3620   hc 0 0.026  0.0000
   9   H5        0.7090    0.2270   -2.2620   hc 0 0.026  0.0000
  10   H6        1.7010   -0.9250   -0.2580   hc 0 0.026  0.0000
  11   H7        1.6990    0.6390    0.6420   hc 0 0.026  0.0000
  12   H8       -0.2920   -0.7430    1.2320   hc 0 0.023  0.0000
  13   H9       -0.8030    0.7810    0.3960   hc 0 0.023  0.0000
  14  H10       -0.8010   -0.7880   -0.5060   hc 0 0.023  0.0000
@<TRIPOS>BOND
    1     1     2  1
    2     1     5  1
    3     1     6  1
    4     1     7  1
    5     2     3  1
    6     2     8  1
    7     2     9  1
    8     3     4  1
    9     3    10  1
   10     3    11  1
   11     4    12  1
   12     4    13  1
   13     4    14  1

@<TRIPOS>MOLECULE
MOL
   14   13    0    0    0




@<TRIPOS>ATOM
   1   C1        2.6690    1.0520   -1.8840   c3 0 -0.06  0.0000
   2   C2        1.2420    0.8100   -1.4650   c3 0 -0.05  0.0000
   3   C3        1.1660    0.0560   -0.1540   c3 0 -0.05  0.0000
   4   C4       -0.2610   -0.1870    0.2650   c3 0 -0.06  0.0000
   5   H1        3.2289    1.5913   -1.0814   hc 0 0.023  0.0000
   6   H2        3.1904    0.0857   -2.0859   hc 0 0.023  0.0000
   7   H3        2.7008    1.6711   -2.8135   hc 0 0.023  0.0000
   8   H4        0.7070    1.7910   -1.3620   hc 0 0.026  0.0000
   9   H5        0.7090    0.2270   -2.2620   hc 0 0.026  0.0000
  10   H6        1.7010   -0.9250   -0.2580   hc 0 0.026  0.0000
  11   H7        1.6990    0.6390    0.6420   hc 0 0.026  0.0000
  12   H8       -0.2920   -0.7430    1.2320   hc 0 0.023  0.0000
  13   H9       -0.8030    0.7810    0.3960   hc 0 0.023  0.0000
  14  H10       -0.8010   -0.7880   -0.5060   hc 0 0.023  0.0000
@<TRIPOS>BOND
    1     1     2  1
    2     1     5  1
    3     1     6  1
    4     1     7  1
    5     2     3  1
    6     2     8  1
    7     2     9  1
    8     3     4  1
    9     3    10  1
   10     3    11  1
   11     4    12  1
   12     4    13  1
   13     4    14  1

@<TRIPOS>MOLECULE
MOL
   14   13    0    0    0




@<TRIPOS>ATOM
   1   C1        2.6690    1.0520   -1.8840   c3 0 -0.06  0.0000
   2   C2        1.2420    0.8100   -1.4650   c3 0 -0.05  0.0000
   3   C3        1.1660    0.0560   -0.1540   c3 0 -0.05  0.0000
   4   C4       -0.2610   -0.1870    0.2650   c3 0 -0.06  0.0000
   5   H1        3.2337    1.5752   -1.0742   hc 0 0.023  0.0000
   6   H2        3.1851    0.0867   -2.1033   hc 0 0.023  0.0000
   7   H3        2.7012    1.6863   -2.8032   hc 0 0.023  0.0000
   8   H4        0.7070    1.7910   -1.3620   hc 0 0.026  0.0000
   9   H5        0.7090    0.2270   -2.2620   hc 0 0.026  0.0000
  10   H6        1.7010   -0.9250   -0.2580   hc 0 0.026  0.0000
  11   H7        1.6990    0.6390    0.6420   hc 0 0.026  0.0000
  12   H8       -0.2920   -0.7430    1.2320   hc 0 0.023  0.0000
  13   H9       -0.8030    0.7810    0.3960   hc 0 0.023  0.0000
  14  H10       -0.8010   -0.7880   -0.5060   hc 0 0.023  0.0000
@<TRIPOS>BOND
    1     1     2  1
    2     1     5  1
    3     1     6  1
    4     1     7  1
    5     2     3  1
    6     2     8  1
    7     2     9  1
    8     3     4  1
    9     3    10  1
   10     3    11  1
   11     4    12  1
   12     4    13  1
   13     4    14  1

@<TRIPOS>MOLECULE
MOL
   14   13    0    0    0




@<TRIPOS>ATOM
   1   C1        2.6690    1.0520   -1.8840   c3 0 -0.06  0.0000
   2   C2        1.2420    0.8100   -1.4650   c3 0 -0.05  0.0000
   3   C3        1.1660    0.0560   -0.1540   c3 0 -0.05  0.0000
   4   C4       -0.2610   -0.1870    0.2650   c3 0 -0.06  0.0000
   5   H1        3.2385    1.5590   -1.0673   hc 0 0.023  0.0000
   6   H2        3.1798    0.0880   -2.1207   hc 0 0.023  0.0000
   7   H3        2.7018    1.7012   -2.7927   hc 0 0.023  0.0000
   8   H4        0.7070    1.7910   -1.3620   hc 0 0.026  0.0000
   9   H5        0.7090    0.2270   -2.2620   hc 0 0.026  0.0000
  10   H6        1.7010   -0.9250   -0.2580   hc 0 0.026  0.0000
  11   H7        1.6990    0.6390    0.6420   hc 0 0.026  0.0000
  12   H8       -0.2920   -0.7430    1.2320   hc 0 0.023  0.0000
  13   H9       -0.8030    0.7810    0.3960   hc 0 0.023  0.0000
  14  H10       -0.8010   -0.7880   -0.5060   hc 0 0.023  0.0000
@<TRIPOS>BOND
    1     1     2  1
    2     1     5  1
    3     1     6  1
    4     1     7  1
    5     2     3  1
    6     2     8  1
    7     2     9  1
    8     3     4  1
    9     3    10  1
   10     3    11  1
   11     4    12  1
   12     4    13  1
   13     4    14  1

@<TRIPOS>MOLECULE
MOL
   14   13    0    0    0




@<TRIPOS>ATOM
   1   C1        2.6690    1.0520   -1.8840   c3 0 -0.06  0.0000
   2   C2        1.2420    0.8100   -1.4650   c3 0 -0.05  0.0000
   3   C3        1.1660    0.0560   -0.1540   c3 0 -0.05  0.0000
   4   C4       -0.2610   -0.1870    0.2650   c3 0 -0.06  0.0000
   5   H1        3.2432    1.5427   -1.0607   hc 0 0.023  0.0000
   6   H2        3.1744    0.0895   -2.1380   hc 0 0.023  0.0000
   7   H3        2.7024    1.7160   -2.7819   hc 0 0.023  0.0000
   8   H4        0.7070    1.7910   -1.3620   hc 0 0.026  0.0000
   9   H5        0.7090    0.2270   -2.2620   hc 0 0.026  0.0000
  10   H6        1.7010   -0.9250   -0.2580   hc 0 0.026  0.0000
  11   H7        1.6990    0.6390    0.6420   hc 0 0.026  0.0000
  12   H8       -0.2920   -0.7430    1.2320   hc 0 0.023  0.0000
  13   H9       -0.8030    0.7810    0.3960   hc 0 0.023  0.0000
  14  H10       -0.8010   -0.7880   -0.5060   hc 0 0.023  0.0000
@<TRIPOS>BOND
    1     1     2  1
    2     1     5  1
    3     1     6  1
    4     1     7  1
    5     2     3  1
    6     2     8  1
    7     2     9  1
    8     3     4  1
    9     3    10  1
   10     3    11  1
   11     4    12  1
   12     4    13  1
   13     4    14  1

@<TRIPOS>MOLECULE
MOL
   14   13    0    0    0




@<TRIPOS>ATOM
   1   C1        2.6690    1.0520   -1.8840   c3 0 -0.06  0.0000
   2   C2        1.2420    0.8100   -1.4650   c3 0 -0.05  0.0000
   3   C3        1.1660    0.0560   -0.1540   c3 0 -0.05  0.0000
   4   C4       -0.2610   -0.1870    0.2650   c3 0 -0.06  0.0000
   5   H1        3.2479    1.5262   -1.0543   hc 0 0.023  0.0000
   6   H2        3.1690    0.0915   -2.1554   hc 0 0.023  0.0000
   7   H3        2.7032    1.7306   -2.7709   hc 0 0.023  0.0000
   8   H4        0.7070    1.7910   -1.3620   hc 0 0.026  0.0000
   9   H5        0.7090    0.2270   -2.2620   hc 0 0.026  0.0000
  10   H6        1.7010   -0.9250   -0.2580   hc 0 0.026  0.0000
  11   H7        1.6990    0.6390    0.6420   hc 0 0.026  0.0000
  12   H8       -0.2920   -0.7430    1.2320   hc 0 0.023  0.0000
  13   H9       -0.8030    0.7810    0.3960   hc 0 0.023  0.0000
  14  H10       -0.8010   -0.7880   -0.5060   hc 0 0.023  0.0000
@<TRIPOS>BOND
    1     1     2  1
    2     1     5  1
    3     1     6  1
    4     1     7  1
    5     2     3  1
    6     2     8  1
    7     2     9  1
    8     3     4  1
    9     3    10  1
   10     3    11  1
   11     4    12  1
   12     4    13  1
   13     4    14  1

@<TRIPOS>MOLECULE
MOL
   14   13    0    0    0




@<TRIPOS>ATOM
   1   C1        2.6690    1.0520   -1.8840   c3 0 -0.06  0.0000
   2   C2        1.2420    0.8100   -1.4650   c3 0 -0.05  0.0000
   3   C3        1.1660    0.0560   -0.1540   c3 0 -0.05  0.0000
   4   C4       -0.2610   -0.1870    0.2650   c3 0 -0.06  0.0000
   5   H1        3.2525    1.5097   -1.0482   hc 0 0.023  0.0000
   6   H2        3.1635    0.0937   -2.1726   hc 0 0.023  0.0000
   7   H3        2.7041    1.7450   -2.7597   hc 0 0.023  0.0000
   8   H4        0.7070    1.7910   -1.3620   hc 0 0.026  0.0000
   9   H5        0.7090    0.2270   -2.2620   hc 0 0.026  0.0000
  10   H6        1.7010   -0.9250   -0.2580   hc 0 0.026  0.0000
  11   H7        1.6990    0.6390    0.6420   hc 0 0.026  0.0000
  12   H8       -0.2920   -0.7430    1.2320   hc 0 0.023  0.0000
  13   H9       -0.8030    0.7810    0.3960   hc 0 0.023  0.0000
  14  H10       -0.8010   -0.7880   -0.5060   hc 0 0.023  0.0000
@<TRIPOS>BOND
    1     1     2  1
    2     1     5  1
    3     1     6  1
    4     1     7  1
    5     2     3  1
    6     2     8  1
    7     2     9  1
    8     3     4  1
    9     3    10  1
   10     3    11  1
   11     4    12  1
   12     4    13  1
   13     4    14  1

@<TRIPOS>MOLECULE
MOL
   14   13    0    0    0




@<TRIPOS>ATOM
   1   C1        2.6690    1.0520   -1.8840   c3 0 -0.06  0.0000
   2   C2        1.2420    0.8100   -1.4650   c3 0 -0.05  0.0000
   3   C3        1.1660    0.0560   -0.1540   c3 0 -0.05  0.0000
   4   C4       -0.2610   -0.1870    0.2650   c3 0 -0.06  0.0000
   5   H1        3.2570    1.4929   -1.0424   hc 0 0.023  0.0000
   6   H2        3.1581    0.0962   -2.1898   hc 0 0.023  0.0000
   7   H3        2.7050    1.7592   -2.7482   hc 0 0.023  0.0000
   8   H4        0.7070    1.7910   -1.3620   hc 0 0.026  0.0000
   9   H5        0.7090    0.2270   -2.2620   hc 0 0.026  0.0000
  10   H6        1.7010   -0.9250   -0.2580   hc 0 0.026  0.0000
  11   H7        1.6990    0.6390    0.6420   hc 0 0.026  0.0000
  12   H8       -0.2920   -0.7430    1.2320   hc 0 0.023  0.0000
  13   H9       -0.8030    0.7810    0.3960   hc 0 0.023  0.0000
  14  H10       -0.8010   -0.7880   -0.5060   hc 0 0.023  0.0000
@<TRIPOS>BOND
    1     1     2  1
    2     1     5  1
    3     1     6  1
    4     1     7  1
    5     2     3  1
    6     2     8  1
    7     2     9  1
    8     3     4  1
    9     3    10  1
   10     3    11  1
   11     4    12  1
   12     4    13  1
   13     4    14  1

@<TRIPOS>MOLECULE
MOL
   14   13    0    0    0




@<TRIPOS>ATOM
   1   C1        2.6690    1.0520   -1.8840   c3 0 -0.06  0.0000
   2   C2        1.2420    0.8100   -1.4650   c3 0 -0.05  0.0000
   3   C3        1.1660    0.0560   -0.1540   c3 0 -0.05  0.0000
   4   C4       -0.2610   -0.1870    0.2650   c3 0 -0.06  0.0000
   5   H1        3.2615    1.4761   -1.0369   hc 0 0.023  0.0000
   6   H2        3.1526    0.0990   -2.2069   hc 0 0.023  0.0000
   7   H3        2.7061    1.7732   -2.7365   hc 0 0.023  0.0000
   8   H4        0.7070    1.7910   -1.3620   hc 0 0.026  0.0000
   9   H5        0.7090    0.2270   -2.2620   hc 0 0.026  0.0000
  10   H6        1.7010   -0.9250   -0.2580   hc 0 0.026  0.0000
  11   H7        1.6990    0.6390    0.6420   hc 0 0.026  0.0000
  12   H8       -0.2920   -0.7430    1.2320   hc 0 0.023  0.0000
  13   H9       -0.8030    0.7810    0.3960   hc 0 0.023  0.0000
  14  H10       -0.8010   -0.7880   -0.5060   hc 0 0.023  0.0000
@<TRIPOS>BOND
    1     1     2  1
    2     1     5  1
    3     1     6  1
    4     1     7  1
    5     2     3  1
    6     2     8  1
    7     2     9  1
    8     3     4  1
    9     3    10  1
   10     3    11  1
   11     4    12  1
   12     4    13  1
   13     4    14  1

@<TRIPOS>MOLECULE
MOL
   14   13    0    0    0




@<TRIPOS>ATOM
   1   C1        2.6690    1.0520   -1.8840   c3 0 -0.06  0.0000
   2   C2        1.2420    0.8100   -1.4650   c3 0 -0.05  0.0000
   3   C3        1.1660    0.0560   -0.1540   c3 0 -0.05  0.0000
   4   C4       -0.2610   -0.1870    0.2650   c3 0 -0.06  0.0000
   5   H1        3.2659    1.4592   -1.0317   hc 0 0.023  0.0000
   6   H2        3.1470    0.1022   -2.2240   hc 0 0.023  0.0000
   7   H3        2.7072    1.7870   -2.7246   hc 0 0.023  0.0000
   8   H4        0.7070    1.7910   -1.3620   hc 0 0.026  0.0000
   9   H5        0.7090    0.2270   -2.2620   hc 0 0.026  0.0000
  10   H6        1.7010   -0.9250   -0.2580   hc 0 0.026  0.0000
  11   H7        1.6990    0.6390    0.6420   hc 0 0.026  0.0000
  12   H8       -0.2920   -0.7430    1.2320   hc 0 0.023  0.0000
  13   H9       -0.8030    0.7810    0.3960   hc 0 0.023  0.0000
  14  H10       -0.8010   -0.7880   -0.5060   hc 0 0.023  0.0000
@<TRIPOS>BOND
    1     1     2  1
    2     1     5  1
    3     1     6  1
    4     1     7  1
    5     2     3  1
    6     2     8  1
    7     2     9  1
    8     3     4  1
    9     3    10  1
   10     3    11  1
   11     4    12  1
   12     4    13  1
   13     4    14  1

@<TRIPOS>MOLECULE
MOL
   14   13    0    0    0




@<TRIPOS>ATOM
   1   C1        2.6690    1.0520   -1.8840   c3 0 -0.06  0.0000
   2   C2        1.2420    0.8100   -1.4650   c3 0 -0.05  0.0000
   3   C3        1.1660    0.0560   -0.1540   c3 0 -0.05  0.0000
   4   C4       -0.2610   -0.1870    0.2650   c3 0 -0.06  0.0000
   5   H1        3.2702    1.4422   -1.0268   hc 0 0.023  0.0000
   6   H2        3.1414    0.1056   -2.2410   hc 0 0.023  0.0000
   7   H3        2.7085    1.8006   -2.7124   hc 0 0.023  0.0000
   8   H4        0.7070    1.7910   -1.3620   hc 0 0.026  0.0000
   9   H5        0.7090    0.2270   -2.2620   hc 0 0.026  0.0000
  10   H6        1.7010   -0.9250   -0.2580   hc 0 0.026  0.0000
  11   H7        1.6990    0.6390    0.6420   hc 0 0.026  0.0000
  12   H8       -0.2920   -0.7430    1.2320   hc 0 0.023  0.0000
  13   H9       -0.8030    0.7810    0.3960   hc 0 0.023  0.0000
  14  H10       -0.8010   -0.7880   -0.5060   hc 0 0.023  0.0000
@<TRIPOS>BOND
    1     1     2  1
    2     1     5  1
    3     1     6  1
    4     1     7  1
    5     2     3  1
    6     2     8  1
    7     2     9  1
    8     3     4  1
    9     3    10  1
   10     3    11  1
   11     4    12  1
   12     4    13  1
   13     4    14  1

@<TRIPOS>MOLECULE
MOL
   14   13    0    0    0




@<TRIPOS>ATOM
   1   C1        2.6690    1.0520   -1.8840   c3 0 -0.06  0.0000
   2   C2        1.2420    0.8100   -1.4650   c3 0 -0.05  0.0000
   3   C3        1.1660    0.0560   -0.1540   c3 0 -0.05  0.0000
   4   C4       -0.2610   -0.1870    0.2650   c3 0 -0.06  0.0000
   5   H1        3.2745    1.4250   -1.0222   hc 0 0.023  0.0000
   6   H2        3.1358    0.1094   -2.2579   hc 0 0.023  0.0000
   7   H3        2.7099    1.8140   -2.7000   hc 0 0.023  0.0000
   8   H4        0.7070    1.7910   -1.3620   hc 0 0.026  0.0000
   9   H5        0.7090    0.2270   -2.2620   hc 0 0.026  0.0000
  10   H6        1.7010   -0.9250   -0.2580   hc 0 0.026  0.0000
  11   H7        1.6990    0.6390    0.6420   hc 0 0.026  0.0000
  12   H8       -0.2920   -0.7430    1.2320   hc 0 0.023  0.0000
  13   H9       -0.8030    0.7810    0.3960   hc 0 0.023  0.0000
  14  H10       -0.8010   -0.7880   -0.5060   hc 0 0.023  0.0000
@<TRIPOS>BOND
    1     1     2  1
    2     1     5  1
    3     1     6  1
    4     1     7  1
    5     2     3  1
    6     2     8  1
    7     2     9  1
    8     3     4  1
    9     3    10  1
   10     3    11  1
   11     4    12  1
   12     4    13  1
   13     4    14  1

@<TRIPOS>MOLECULE
MOL
   14   13    0    0    0




@<TRIPOS>ATOM
   1   C1        2.6690    1.0520   -1.8840   c3 0 -0.06  0.0000
   2   C2        1.2420    0.8100   -1.4650   c3 0 -0.05  0.0000
   3   C3        1.1660    0.0560   -0.1540   c3 0 -0.05  0.0000
   4   C4       -0.2610   -0.1870    0.2650   c3 0 -0.06  0.0000
   5   H1        3.2787    1.4078   -1.0179   hc 0 0.023  0.0000
   6   H2        3.1302    0.1135   -2.2748   hc 0 0.023  0.0000
   7   H3        2.7113    1.8272   -2.6875   hc 0 0.023  0.0000
   8   H4        0.7070    1.7910   -1.3620   hc 0 0.026  0.0000
   9   H5        0.7090    0.2270   -2.2620   hc 0 0.026  0.0000
  10   H6        1.7010   -0.9250   -0.2580   hc 0 0.026  0.0000
  11   H7        1.6990    0.6390    0.6420   hc 0 0.026  0.0000
  12   H8       -0.2920   -0.7430    1.2320   hc 0 0.023  0.0000
  13   H9       -0.8030    0.7810    0.3960   hc 0 0.023  0.0000
  14  H10       -0.8010   -0.7880   -0.5060   hc 0 0.023  0.0000
@<TRIPOS>BOND
    1     1     2  1
    2     1     5  1
    3     1     6  1
    4     1     7  1
    5     2     3  1
    6     2     8  1
    7     2     9  1
    8     3     4  1
    9     3    10  1
   10     3    11  1
   11     4    12  1
   12     4    13  1
   13     4    14  1

@<TRIPOS>MOLECULE
MOL
   14   13    0    0    0




@<TRIPOS>ATOM
   1   C1        2.6690    1.0520   -1.8840   c3 0 -0.06  0.0000
   2   C2        1.2420    0.8100   -1.4650   c3 0 -0.05  0.0000
   3   C3        1.1660    0.0560   -0.1540   c3 0 -0.05  0.0000
   4   C4       -0.2610   -0.1870    0.2650   c3 0 -0.06  0.0000
   5   H1        3.2828    1.3905   -1.0139   hc 0 0.023  0.0000
   6   H2        3.1245    0.1178   -2.2916   hc 0 0.023  0.0000
   7   H3        2.7129    1.8401   -2.6747   hc 0 0.023  0.0000
   8   H4        0.7070    1.7910   -1.3620   hc 0 0.026  0.0000
   9   H5        0.7090    0.2270   -2.2620   hc 0 0.026  0.0000
  10   H6        1.7010   -0.9250   -0.2580   hc 0 0.026  0.0000
  11   H7        1.6990    0.6390    0.6420   hc 0 0.026  0.0000
  12   H8       -0.2920   -0.7430    1.2320   hc 0 0.023  0.0000
  13   H9       -0.8030    0.7810    0.3960   hc 0 0.023  0.0000
  14  H10       -0.8010   -0.7880   -0.5060   hc 0 0.023  0.0000
@<TRIPOS>BOND
    1     1     2  1
    2     1     5  1
    3     1     6  1
    4     1     7  1
    5     2     3  1
    6     2     8  1
    7     2     9  1
    8     3     4  1
    9     3    10  1
   10     3    11  1
   11     4    12  1
   12     4    13  1
   13     4    14  1

@<TRIPOS>MOLECULE
MOL
   14   13    0    0    0




@<TRIPOS>ATOM
   1   C1        2.6690    1.0520   -1.8840   c3 0 -0.06  0.0000
   2   C2        1.2420    0.8100   -1.4650   c3 0 -0.05  0.0000
   3   C3        1.1660    0.0560   -0.1540   c3 0 -0.05  0.0000
   4   C4       -0.2610   -0.1870    0.2650   c3 0 -0.06  0.0000
   5   H1        3.2868    1.3731   -1.0101   hc 0 0.023  0.0000
   6   H2        3.1188    0.1225   -2.3082   hc 0 0.023  0.0000
   7   H3        2.7145    1.8529   -2.6616   hc 0 0.023  0.0000
   8   H4        0.7070    1.7910   -1.3620   hc 0 0.026  0.0000
   9   H5        0.7090    0.2270   -2.2620   hc 0 0.026  0.0000
  10   H6        1.7010   -0.9250   -0.2580   hc 0 0.026  0.0000
  11   H7        1.6990    0.6390    0.6420   hc 0 0.026  0.0000
  12   H8       -0.2920   -0.7430    1.2320   hc 0 0.023  0.0000
  13   H9       -0.8030    0.7810    0.3960   hc 0 0.023  0.0000
  14  H10       -0.8010   -0.7880   -0.5060   hc 0 0.023  0.0000
@<TRIPOS>BOND
    1     1     2  1
    2     1     5  1
    3     1     6  1
    4     1     7  1
    5     2     3  1
    6     2     8  1
    7     2     9  1
    8     3     4  1
    9     3    10  1
   10     3    11  1
   11     4    12  1
   12     4    13  1
   13     4    14  1

@<TRIPOS>MOLECULE
MOL
   14   13    0    0    0




@<TRIPOS>ATOM
   1   C1        2.6690    1.0520   -1.8840   c3 0 -0.06  0.0000
   2   C2        1.2420    0.8100   -1.4650   c3 0 -0.05  0.0000
   3   C3        1.1660    0.0560   -0.1540   c3 0 -0.05  0.0000
   4   C4       -0.2610   -0.1870    0.2650   c3 0 -0.06  0.0000
   5   H1        3.2908    1.3556   -1.0067   hc 0 0.023  0.0000
   6   H2        3.1131    0.1275   -2.3248   hc 0 0.023  0.0000
   7   H3        2.7163    1.8654   -2.6484   hc 0 0.023  0.0000
   8   H4        0.7070    1.7910   -1.3620   hc 0 0.026  0.0000
   9   H5        0.7090    0.2270   -2.2620   hc 0 0.026  0.0000
  10   H6        1.7010   -0.9250   -0.2580   hc 0 0.026  0.0000
  11   H7        1.6990    0.6390    0.6420   hc 0 0.026  0.0000
  12   H8       -0.2920   -0.7430    1.2320   hc 0 0.023  0.0000
  13   H9       -0.8030    0.7810    0.3960   hc 0 0.023  0.0000
  14  H10       -0.8010   -0.7880   -0.5060   hc 0 0.023  0.0000
@<TRIPOS>BOND
    1     1     2  1
    2     1     5  1
    3     1     6  1
    4     1     7  1
    5     2     3  1
    6     2     8  1
    7     2     9  1
    8     3     4  1
    9     3    10  1
   10     3    11  1
   11     4    12  1
   12     4    13  1
   13     4    14  1

@<TRIPOS>MOLECULE
MOL
   14   13    0    0    0




@<TRIPOS>ATOM
   1   C1        2.6690    1.0520   -1.8840   c3 0 -0.06  0.0000
   2   C2        1.2420    0.8100   -1.4650   c3 0 -0.05  0.0000
   3   C3        1.1660    0.0560   -0.1540   c3 0 -0.05  0.0000
   4   C4       -0.2610   -0.1870    0.2650   c3 0 -0.06  0.0000
   5   H1        3.2947    1.3380   -1.0036   hc 0 0.023  0.0000
   6   H2        3.1074    0.1328   -2.3413   hc 0 0.023  0.0000
   7   H3        2.7181    1.8777   -2.6350   hc 0 0.023  0.0000
   8   H4        0.7070    1.7910   -1.3620   hc 0 0.026  0.0000
   9   H5        0.7090    0.2270   -2.2620   hc 0 0.026  0.0000
  10   H6        1.7010   -0.9250   -0.2580   hc 0 0.026  0.0000
  11   H7        1.6990    0.6390    0.6420   hc 0 0.026  0.0000
  12   H8       -0.2920   -0.7430    1.2320   hc 0 0.023  0.0000
  13   H9       -0.8030    0.7810    0.3960   hc 0 0.023  0.0000
  14  H10       -0.8010   -0.7880   -0.5060   hc 0 0.023  0.0000
@<TRIPOS>BOND
    1     1     2  1
    2     1     5  1
    3     1     6  1
    4     1     7  1
    5     2     3  1
    6     2     8  1
    7     2     9  1
    8     3     4  1
    9     3    10  1
   10     3    11  1
   11     4    12  1
   12     4    13  1
   13     4    14  1

@<TRIPOS>MOLECULE
MOL
   14   13    0    0    0




@<TRIPOS>ATOM
   1   C1        2.6690    1.0520   -1.8840   c3 0 -0.06  0.0000
   2   C2        1.2420    0.8100   -1.4650   c3 0 -0.05  0.0000
   3   C3        1.1660    0.0560   -0.1540   c3 0 -0.05  0.0000
   4   C4       -0.2610   -0.1870    0.2650   c3 0 -0.06  0.0000
   5   H1        3.2985    1.3204   -1.0008   hc 0 0.023  0.0000
   6   H2        3.1016    0.1383   -2.3576   hc 0 0.023  0.0000
   7   H3        2.7201    1.8898   -2.6214   hc 0 0.023  0.0000
   8   H4        0.7070    1.7910   -1.3620   hc 0 0.026  0.0000
   9   H5        0.7090    0.2270   -2.2620   hc 0 0.026  0.0000
  10   H6        1.7010   -0.9250   -0.2580   hc 0 0.026  0.0000
  11   H7        1.6990    0.6390    0.6420   hc 0 0.026  0.0000
  12   H8       -0.2920   -0.7430    1.2320   hc 0 0.023  0.0000
  13   H9       -0.8030    0.7810    0.3960   hc 0 0.023  0.0000
  14  H10       -0.8010   -0.7880   -0.5060   hc 0 0.023  0.0000
@<TRIPOS>BOND
    1     1     2  1
    2     1     5  1
    3     1     6  1
    4     1     7  1
    5     2     3  1
    6     2     8  1
    7     2     9  1
    8     3     4  1
    9     3    10  1
   10     3    11  1
   11     4    12  1
   12     4    13  1
   13     4    14  1

@<TRIPOS>MOLECULE
MOL
   14   13    0    0    0




@<TRIPOS>ATOM
   1   C1        2.6690    1.0520   -1.8840   c3 0 -0.06  0.0000
   2   C2        1.2420    0.8100   -1.4650   c3 0 -0.05  0.0000
   3   C3        1.1660    0.0560   -0.1540   c3 0 -0.05  0.0000
   4   C4       -0.2610   -0.1870    0.2650   c3 0 -0.06  0.0000
   5   H1        3.3023    1.3027   -0.9982   hc 0 0.023  0.0000
   6   H2        3.0959    0.1442   -2.3739   hc 0 0.023  0.0000
   7   H3        2.7221    1.9016   -2.6076   hc 0 0.023  0.0000
   8   H4        0.7070    1.7910   -1.3620   hc 0 0.026  0.0000
   9   H5        0.7090    0.2270   -2.2620   hc 0 0.026  0.0000
  10   H6        1.7010   -0.9250   -0.2580   hc 0 0.026  0.0000
  11   H7        1.6990    0.6390    0.6420   hc 0 0.026  0.0000
  12   H8       -0.2920   -0.7430    1.2320   hc 0 0.023  0.0000
  13   H9       -0.8030    0.7810    0.3960   hc 0 0.023  0.0000
  14  H10       -0.8010   -0.7880   -0.5060   hc 0 0.023  0.0000
@<TRIPOS>BOND
    1     1     2  1
    2     1     5  1
    3     1     6  1
    4     1     7  1
    5     2     3  1
    6     2     8  1
    7     2     9  1
    8     3     4  1
    9     3    10  1
   10     3    11  1
   11     4    12  1
   12     4    13  1
   13     4    14  1

@<TRIPOS>MOLECULE
MOL
   14   13    0    0    0




@<TRIPOS>ATOM
   1   C1        2.6690    1.0520   -1.8840   c3 0 -0.06  0.0000
   2   C2        1.2420    0.8100   -1.4650   c3 0 -0.05  0.0000
   3   C3        1.1660    0.0560   -0.1540   c3 0 -0.05  0.0000
   4   C4       -0.2610   -0.1870    0.2650   c3 0 -0.06  0.0000
   5   H1        3.3059    1.2850   -0.9960   hc 0 0.023  0.0000
   6   H2        3.0901    0.1504   -2.3900   hc 0 0.023  0.0000
   7   H3        2.7243    1.9132   -2.5936   hc 0 0.023  0.0000
   8   H4        0.7070    1.7910   -1.3620   hc 0 0.026  0.0000
   9   H5        0.7090    0.2270   -2.2620   hc 0 0.026  0.0000
  10   H6        1.7010   -0.9250   -0.2580   hc 0 0.026  0.0000
  11   H7        1.6990    0.6390    0.6420   hc 0 0.026  0.0000
  12   H8       -0.2920   -0.7430    1.2320   hc 0 0.023  0.0000
  13   H9       -0.8030    0.7810    0.3960   hc 0 0.023  0.0000
  14  H10       -0.8010   -0.7880   -0.5060   hc 0 0.023  0.0000
@<TRIPOS>BOND
    1     1     2  1
    2     1     5  1
    3     1     6  1
    4     1     7  1
    5     2     3  1
    6     2     8  1
    7     2     9  1
    8     3     4  1
    9     3    10  1
   10     3    11  1
   11     4    12  1
   12     4    13  1
   13     4    14  1

@<TRIPOS>MOLECULE
MOL
   14   13    0    0    0




@<TRIPOS>ATOM
   1   C1        2.6690    1.0520   -1.8840   c3 0 -0.06  0.0000
   2   C2        1.2420    0.8100   -1.4650   c3 0 -0.05  0.0000
   3   C3        1.1660    0.0560   -0.1540   c3 0 -0.05  0.0000
   4   C4       -0.2610   -0.1870    0.2650   c3 0 -0.06  0.0000
   5   H1        3.3095    1.2672   -0.9941   hc 0 0.023  0.0000
   6   H2        3.0843    0.1569   -2.4061   hc 0 0.023  0.0000
   7   H3        2.7265    1.9245   -2.5795   hc 0 0.023  0.0000
   8   H4        0.7070    1.7910   -1.3620   hc 0 0.026  0.0000
   9   H5        0.7090    0.2270   -2.2620   hc 0 0.026  0.0000
  10   H6        1.7010   -0.9250   -0.2580   hc 0 0.026  0.0000
  11   H7        1.6990    0.6390    0.6420   hc 0 0.026  0.0000
  12   H8       -0.2920   -0.7430    1.2320   hc 0 0.023  0.0000
  13   H9       -0.8030    0.7810    0.3960   hc 0 0.023  0.0000
  14  H10       -0.8010   -0.7880   -0.5060   hc 0 0.023  0.0000
@<TRIPOS>BOND
    1     1     2  1
    2     1     5  1
    3     1     6  1
    4     1     7  1
    5     2     3  1
    6     2     8  1
    7     2     9  1
    8     3     4  1
    9     3    10  1
   10     3    11  1
   11     4    12  1
   12     4    13  1
   13     4    14  1

@<TRIPOS>MOLECULE
MOL
   14   13    0    0    0




@<TRIPOS>ATOM
   1   C1        2.6690    1.0520   -1.8840   c3 0 -0.06  0.0000
   2   C2        1.2420    0.8100   -1.4650   c3 0 -0.05  0.0000
   3   C3        1.1660    0.0560   -0.1540   c3 0 -0.05  0.0000
   4   C4       -0.2610   -0.1870    0.2650   c3 0 -0.06  0.0000
   5   H1        3.3130    1.2494   -0.9925   hc 0 0.023  0.0000
   6   H2        3.0785    0.1636   -2.4220   hc 0 0.023  0.0000
   7   H3        2.7289    1.9356   -2.5651   hc 0 0.023  0.0000
   8   H4        0.7070    1.7910   -1.3620   hc 0 0.026  0.0000
   9   H5        0.7090    0.2270   -2.2620   hc 0 0.026  0.0000
  10   H6        1.7010   -0.9250   -0.2580   hc 0 0.026  0.0000
  11   H7        1.6990    0.6390    0.6420   hc 0 0.026  0.0000
  12   H8       -0.2920   -0.7430    1.2320   hc 0 0.023  0.0000
  13   H9       -0.8030    0.7810    0.3960   hc 0 0.023  0.0000
  14  H10       -0.8010   -0.7880   -0.5060   hc 0 0.023  0.0000
@<TRIPOS>BOND
    1     1     2  1
    2     1     5  1
    3     1     6  1
    4     1     7  1
    5     2     3  1
    6     2     8  1
    7     2     9  1
    8     3     4  1
    9     3    10  1
   10     3    11  1
   11     4    12  1
   12     4    13  1
   13     4    14  1

@<TRIPOS>MOLECULE
MOL
   14   13    0    0    0




@<TRIPOS>ATOM
   1   C1        2.6690    1.0520   -1.8840   c3 0 -0.06  0.0000
   2   C2        1.2420    0.8100   -1.4650   c3 0 -0.05  0.0000
   3   C3        1.1660    0.0560   -0.1540   c3 0 -0.05  0.0000
   4   C4       -0.2610   -0.1870    0.2650   c3 0 -0.06  0.0000
   5   H1        3.3164    1.2315   -0.9912   hc 0 0.023  0.0000
   6   H2        3.0726    0.1707   -2.4377   hc 0 0.023  0.0000
   7   H3        2.7313    1.9464   -2.5506   hc 0 0.023  0.0000
   8   H4        0.7070    1.7910   -1.3620   hc 0 0.026  0.0000
   9   H5        0.7090    0.2270   -2.2620   hc 0 0.026  0.0000
  10   H6        1.7010   -0.9250   -0.2580   hc 0 0.026  0.0000
  11   H7        1.6990    0.6390    0.6420   hc 0 0.026  0.0000
  12   H8       -0.2920   -0.7430    1.2320   hc 0 0.023  0.0000
  13   H9       -0.8030    0.7810    0.3960   hc 0 0.023  0.0000
  14  H10       -0.8010   -0.7880   -0.5060   hc 0 0.023  0.0000
@<TRIPOS>BOND
    1     1     2  1
    2     1     5  1
    3     1     6  1
    4     1     7  1
    5     2     3  1
    6     2     8  1
    7     2     9  1
    8     3     4  1
    9     3    10  1
   10     3    11  1
   11     4    12  1
   12     4    13  1
   13     4    14  1

@<TRIPOS>MOLECULE
MOL
   14   13    0    0    0




@<TRIPOS>ATOM
   1   C1        2.6690    1.0520   -1.8840   c3 0 -0.06  0.0000
   2   C2        1.2420    0.8100   -1.4650   c3 0 -0.05  0.0000
   3   C3        1.1660    0.0560   -0.1540   c3 0 -0.05  0.0000
   4   C4       -0.2610   -0.1870    0.2650   c3 0 -0.06  0.0000
   5   H1        3.3197    1.2136   -0.9902   hc 0 0.023  0.0000
   6   H2        3.0668    0.1780   -2.4534   hc 0 0.023  0.0000
   7   H3        2.7338    1.9570   -2.5359   hc 0 0.023  0.0000
   8   H4        0.7070    1.7910   -1.3620   hc 0 0.026  0.0000
   9   H5        0.7090    0.2270   -2.2620   hc 0 0.026  0.0000
  10   H6        1.7010   -0.9250   -0.2580   hc 0 0.026  0.0000
  11   H7        1.6990    0.6390    0.6420   hc 0 0.026  0.0000
  12   H8       -0.2920   -0.7430    1.2320   hc 0 0.023  0.0000
  13   H9       -0.8030    0.7810    0.3960   hc 0 0.023  0.0000
  14  H10       -0.8010   -0.7880   -0.5060   hc 0 0.023  0.0000
@<TRIPOS>BOND
    1     1     2  1
    2     1     5  1
    3     1     6  1
    4     1     7  1
    5     2     3  1
    6     2     8  1
    7     2     9  1
    8     3     4  1
    9     3    10  1
   10     3    11  1
   11     4    12  1
   12     4    13  1
   13     4    14  1

@<TRIPOS>MOLECULE
MOL
   14   13    0    0    0




@<TRIPOS>ATOM
   1   C1        2.6690    1.0520   -1.8840   c3 0 -0.06  0.0000
   2   C2        1.2420    0.8100   -1.4650   c3 0 -0.05  0.0000
   3   C3        1.1660    0.0560   -0.1540   c3 0 -0.05  0.0000
   4   C4       -0.2610   -0.1870    0.2650   c3 0 -0.06  0.0000
   5   H1        3.3230    1.1956   -0.9895   hc 0 0.023  0.0000
   6   H2        3.0610    0.1856   -2.4689   hc 0 0.023  0.0000
   7   H3        2.7364    1.9674   -2.5210   hc 0 0.023  0.0000
   8   H4        0.7070    1.7910   -1.3620   hc 0 0.026  0.0000
   9   H5        0.7090    0.2270   -2.2620   hc 0 0.026  0.0000
  10   H6        1.7010   -0.9250   -0.2580   hc 0 0.026  0.0000
  11   H7        1.6990    0.6390    0.6420   hc 0 0.026  0.0000
  12   H8       -0.2920   -0.7430    1.2320   hc 0 0.023  0.0000
  13   H9       -0.8030    0.7810    0.3960   hc 0 0.023  0.0000
  14  H10       -0.8010   -0.7880   -0.5060   hc 0 0.023  0.0000
@<TRIPOS>BOND
    1     1     2  1
    2     1     5  1
    3     1     6  1
    4     1     7  1
    5     2     3  1
    6     2     8  1
    7     2     9  1
    8     3     4  1
    9     3    10  1
   10     3    11  1
   11     4    12  1
   12     4    13  1
   13     4    14  1

@<TRIPOS>MOLECULE
MOL
   14   13    0    0    0




@<TRIPOS>ATOM
   1   C1        2.6690    1.0520   -1.8840   c3 0 -0.06  0.0000
   2   C2        1.2420    0.8100   -1.4650   c3 0 -0.05  0.0000
   3   C3        1.1660    0.0560   -0.1540   c3 0 -0.05  0.0000
   4   C4       -0.2610   -0.1870    0.2650   c3 0 -0.06  0.0000
   5   H1        3.3262    1.1776   -0.9891   hc 0 0.023  0.0000
   6   H2        3.0551    0.1935   -2.4842   hc 0 0.023  0.0000
   7   H3        2.7391    1.9774   -2.5060   hc 0 0.023  0.0000
   8   H4        0.7070    1.7910   -1.3620   hc 0 0.026  0.0000
   9   H5        0.7090    0.2270   -2.2620   hc 0 0.026  0.0000
  10   H6        1.7010   -0.9250   -0.2580   hc 0 0.026  0.0000
  11   H7        1.6990    0.6390    0.6420   hc 0 0.026  0.0000
  12   H8       -0.2920   -0.7430    1.2320   hc 0 0.023  0.0000
  13   H9       -0.8030    0.7810    0.3960   hc 0 0.023  0.0000
  14  H10       -0.8010   -0.7880   -0.5060   hc 0 0.023  0.0000
@<TRIPOS>BOND
    1     1     2  1
    2     1     5  1
    3     1     6  1
    4     1     7  1
    5     2     3  1
    6     2     8  1
    7     2     9  1
    8     3     4  1
    9     3    10  1
   10     3    11  1
   11     4    12  1
   12     4    13  1
   13     4    14  1

@<TRIPOS>MOLECULE
MOL
   14   13    0    0    0




@<TRIPOS>ATOM
   1   C1        2.6690    1.0520   -1.8840   c3 0 -0.06  0.0000
   2   C2        1.2420    0.8100   -1.4650   c3 0 -0.05  0.0000
   3   C3        1.1660    0.0560   -0.1540   c3 0 -0.05  0.0000
   4   C4       -0.2610   -0.1870    0.2650   c3 0 -0.06  0.0000
   5   H1        3.3292    1.1597   -0.9890   hc 0 0.023  0.0000
   6   H2        3.0493    0.2017   -2.4994   hc 0 0.023  0.0000
   7   H3        2.7419    1.9872   -2.4908   hc 0 0.023  0.0000
   8   H4        0.7070    1.7910   -1.3620   hc 0 0.026  0.0000
   9   H5        0.7090    0.2270   -2.2620   hc 0 0.026  0.0000
  10   H6        1.7010   -0.9250   -0.2580   hc 0 0.026  0.0000
  11   H7        1.6990    0.6390    0.6420   hc 0 0.026  0.0000
  12   H8       -0.2920   -0.7430    1.2320   hc 0 0.023  0.0000
  13   H9       -0.8030    0.7810    0.3960   hc 0 0.023  0.0000
  14  H10       -0.8010   -0.7880   -0.5060   hc 0 0.023  0.0000
@<TRIPOS>BOND
    1     1     2  1
    2     1     5  1
    3     1     6  1
    4     1     7  1
    5     2     3  1
    6     2     8  1
    7     2     9  1
    8     3     4  1
    9     3    10  1
   10     3    11  1
   11     4    12  1
   12     4    13  1
   13     4    14  1

@<TRIPOS>MOLECULE
MOL
   14   13    0    0    0




@<TRIPOS>ATOM
   1   C1        2.6690    1.0520   -1.8840   c3 0 -0.06  0.0000
   2   C2        1.2420    0.8100   -1.4650   c3 0 -0.05  0.0000
   3   C3        1.1660    0.0560   -0.1540   c3 0 -0.05  0.0000
   4   C4       -0.2610   -0.1870    0.2650   c3 0 -0.06  0.0000
   5   H1        3.3322    1.1417   -0.9893   hc 0 0.023  0.0000
   6   H2        3.0434    0.2102   -2.5144   hc 0 0.023  0.0000
   7   H3        2.7448    1.9968   -2.4755   hc 0 0.023  0.0000
   8   H4        0.7070    1.7910   -1.3620   hc 0 0.026  0.0000
   9   H5        0.7090    0.2270   -2.2620   hc 0 0.026  0.0000
  10   H6        1.7010   -0.9250   -0.2580   hc 0 0.026  0.0000
  11   H7        1.6990    0.6390    0.6420   hc 0 0.026  0.0000
  12   H8       -0.2920   -0.7430    1.2320   hc 0 0.023  0.0000
  13   H9       -0.8030    0.7810    0.3960   hc 0 0.023  0.0000
  14  H10       -0.8010   -0.7880   -0.5060   hc 0 0.023  0.0000
@<TRIPOS>BOND
    1     1     2  1
    2     1     5  1
    3     1     6  1
    4     1     7  1
    5     2     3  1
    6     2     8  1
    7     2     9  1
    8     3     4  1
    9     3    10  1
   10     3    11  1
   11     4    12  1
   12     4    13  1
   13     4    14  1

@<TRIPOS>MOLECULE
MOL
   14   13    0    0    0




@<TRIPOS>ATOM
   1   C1        2.6690    1.0520   -1.8840   c3 0 -0.06  0.0000
   2   C2        1.2420    0.8100   -1.4650   c3 0 -0.05  0.0000
   3   C3        1.1660    0.0560   -0.1540   c3 0 -0.05  0.0000
   4   C4       -0.2610   -0.1870    0.2650   c3 0 -0.06  0.0000
   5   H1        3.3351    1.1236   -0.9898   hc 0 0.023  0.0000
   6   H2        3.0376    0.2189   -2.5293   hc 0 0.023  0.0000
   7   H3        2.7478    2.0061   -2.4600   hc 0 0.023  0.0000
   8   H4        0.7070    1.7910   -1.3620   hc 0 0.026  0.0000
   9   H5        0.7090    0.2270   -2.2620   hc 0 0.026  0.0000
  10   H6        1.7010   -0.9250   -0.2580   hc 0 0.026  0.0000
  11   H7        1.6990    0.6390    0.6420   hc 0 0.026  0.0000
  12   H8       -0.2920   -0.7430    1.2320   hc 0 0.023  0.0000
  13   H9       -0.8030    0.7810    0.3960   hc 0 0.023  0.0000
  14  H10       -0.8010   -0.7880   -0.5060   hc 0 0.023  0.0000
@<TRIPOS>BOND
    1     1     2  1
    2     1     5  1
    3     1     6  1
    4     1     7  1
    5     2     3  1
    6     2     8  1
    7     2     9  1
    8     3     4  1
    9     3    10  1
   10     3    11  1
   11     4    12  1
   12     4    13  1
   13     4    14  1

@<TRIPOS>MOLECULE
MOL
   14   13    0    0    0




@<TRIPOS>ATOM
   1   C1        2.6690    1.0520   -1.8840   c3 0 -0.06  0.0000
   2   C2        1.2420    0.8100   -1.4650   c3 0 -0.05  0.0000
   3   C3        1.1660    0.0560   -0.1540   c3 0 -0.05  0.0000
   4   C4       -0.2610   -0.1870    0.2650   c3 0 -0.06  0.0000
   5   H1        3.3379    1.1056   -0.9906   hc 0 0.023  0.0000
   6   H2        3.0317    0.2279   -2.5440   hc 0 0.023  0.0000
   7   H3        2.7508    2.0151   -2.4444   hc 0 0.023  0.0000
   8   H4        0.7070    1.7910   -1.3620   hc 0 0.026  0.0000
   9   H5        0.7090    0.2270   -2.2620   hc 0 0.026  0.0000
  10   H6        1.7010   -0.9250   -0.2580   hc 0 0.026  0.0000
  11   H7        1.6990    0.6390    0.6420   hc 0 0.026  0.0000
  12   H8       -0.2920   -0.7430    1.2320   hc 0 0.023  0.0000
  13   H9       -0.8030    0.7810    0.3960   hc 0 0.023  0.0000
  14  H10       -0.8010   -0.7880   -0.5060   hc 0 0.023  0.0000
@<TRIPOS>BOND
    1     1     2  1
    2     1     5  1
    3     1     6  1
    4     1     7  1
    5     2     3  1
    6     2     8  1
    7     2     9  1
    8     3     4  1
    9     3    10  1
   10     3    11  1
   11     4    12  1
   12     4    13  1
   13     4    14  1

@<TRIPOS>MOLECULE
MOL
   14   13    0    0    0




@<TRIPOS>ATOM
   1   C1        2.6690    1.0520   -1.8840   c3 0 -0.06  0.0000
   2   C2        1.2420    0.8100   -1.4650   c3 0 -0.05  0.0000
   3   C3        1.1660    0.0560   -0.1540   c3 0 -0.05  0.0000
   4   C4       -0.2610   -0.1870    0.2650   c3 0 -0.06  0.0000
   5   H1        3.3406    1.0876   -0.9918   hc 0 0.023  0.0000
   6   H2        3.0259    0.2372   -2.5586   hc 0 0.023  0.0000
   7   H3        2.7540    2.0238   -2.4287   hc 0 0.023  0.0000
   8   H4        0.7070    1.7910   -1.3620   hc 0 0.026  0.0000
   9   H5        0.7090    0.2270   -2.2620   hc 0 0.026  0.0000
  10   H6        1.7010   -0.9250   -0.2580   hc 0 0.026  0.0000
  11   H7        1.6990    0.6390    0.6420   hc 0 0.026  0.0000
  12   H8       -0.2920   -0.7430    1.2320   hc 0 0.023  0.0000
  13   H9       -0.8030    0.7810    0.3960   hc 0 0.023  0.0000
  14  H10       -0.8010   -0.7880   -0.5060   hc 0 0.023  0.0000
@<TRIPOS>BOND
    1     1     2  1
    2     1     5  1
    3     1     6  1
    4     1     7  1
    5     2     3  1
    6     2     8  1
    7     2     9  1
    8     3     4  1
    9     3    10  1
   10     3    11  1
   11     4    12  1
   12     4    13  1
   13     4    14  1

@<TRIPOS>MOLECULE
MOL
   14   13    0    0    0




@<TRIPOS>ATOM
   1   C1        2.6690    1.0520   -1.8840   c3 0 -0.06  0.0000
   2   C2        1.2420    0.8100   -1.4650   c3 0 -0.05  0.0000
   3   C3        1.1660    0.0560   -0.1540   c3 0 -0.05  0.0000
   4   C4       -0.2610   -0.1870    0.2650   c3 0 -0.06  0.0000
   5   H1        3.3433    1.0696   -0.9932   hc 0 0.023  0.0000
   6   H2        3.0200    0.2468   -2.5730   hc 0 0.023  0.0000
   7   H3        2.7572    2.0322   -2.4128   hc 0 0.023  0.0000
   8   H4        0.7070    1.7910   -1.3620   hc 0 0.026  0.0000
   9   H5        0.7090    0.2270   -2.2620   hc 0 0.026  0.0000
  10   H6        1.7010   -0.9250   -0.2580   hc 0 0.026  0.0000
  11   H7        1.6990    0.6390    0.6420   hc 0 0.026  0.0000
  12   H8       -0.2920   -0.7430    1.2320   hc 0 0.023  0.0000
  13   H9       -0.8030    0.7810    0.3960   hc 0 0.023  0.0000
  14  H10       -0.8010   -0.7880   -0.5060   hc 0 0.023  0.0000
@<TRIPOS>BOND
    1     1     2  1
    2     1     5  1
    3     1     6  1
    4     1     7  1
    5     2     3  1
    6     2     8  1
    7     2     9  1
    8     3     4  1
    9     3    10  1
   10     3    11  1
   11     4    12  1
   12     4    13  1
   13     4    14  1

@<TRIPOS>MOLECULE
MOL
   14   13    0    0    0




@<TRIPOS>ATOM
   1   C1        2.6690    1.0520   -1.8840   c3 0 -0.06  0.0000
   2   C2        1.2420    0.8100   -1.4650   c3 0 -0.05  0.0000
   3   C3        1.1660    0.0560   -0.1540   c3 0 -0.05  0.0000
   4   C4       -0.2610   -0.1870    0.2650   c3 0 -0.06  0.0000
   5   H1        3.3458    1.0516   -0.9950   hc 0 0.023  0.0000
   6   H2        3.0142    0.2566   -2.5872   hc 0 0.023  0.0000
   7   H3        2.7605    2.0404   -2.3967   hc 0 0.023  0.0000
   8   H4        0.7070    1.7910   -1.3620   hc 0 0.026  0.0000
   9   H5        0.7090    0.2270   -2.2620   hc 0 0.026  0.0000
  10   H6        1.7010   -0.9250   -0.2580   hc 0 0.026  0.0000
  11   H7        1.6990    0.6390    0.6420   hc 0 0.026  0.0000
  12   H8       -0.2920   -0.7430    1.2320   hc 0 0.023  0.0000
  13   H9       -0.8030    0.7810    0.3960   hc 0 0.023  0.0000
  14  H10       -0.8010   -0.7880   -0.5060   hc 0 0.023  0.0000
@<TRIPOS>BOND
    1     1     2  1
    2     1     5  1
    3     1     6  1
    4     1     7  1
    5     2     3  1
    6     2     8  1
    7     2     9  1
    8     3     4  1
    9     3    10  1
   10     3    11  1
   11     4    12  1
   12     4    13  1
   13     4    14  1

@<TRIPOS>MOLECULE
MOL
   14   13    0    0    0




@<TRIPOS>ATOM
   1   C1        2.6690    1.0520   -1.8840   c3 0 -0.06  0.0000
   2   C2        1.2420    0.8100   -1.4650   c3 0 -0.05  0.0000
   3   C3        1.1660    0.0560   -0.1540   c3 0 -0.05  0.0000
   4   C4       -0.2610   -0.1870    0.2650   c3 0 -0.06  0.0000
   5   H1        3.3483    1.0337   -0.9970   hc 0 0.023  0.0000
   6   H2        3.0084    0.2667   -2.6012   hc 0 0.023  0.0000
   7   H3        2.7639    2.0483   -2.3806   hc 0 0.023  0.0000
   8   H4        0.7070    1.7910   -1.3620   hc 0 0.026  0.0000
   9   H5        0.7090    0.2270   -2.2620   hc 0 0.026  0.0000
  10   H6        1.7010   -0.9250   -0.2580   hc 0 0.026  0.0000
  11   H7        1.6990    0.6390    0.6420   hc 0 0.026  0.0000
  12   H8       -0.2920   -0.7430    1.2320   hc 0 0.023  0.0000
  13   H9       -0.8030    0.7810    0.3960   hc 0 0.023  0.0000
  14  H10       -0.8010   -0.7880   -0.5060   hc 0 0.023  0.0000
@<TRIPOS>BOND
    1     1     2  1
    2     1     5  1
    3     1     6  1
    4     1     7  1
    5     2     3  1
    6     2     8  1
    7     2     9  1
    8     3     4  1
    9     3    10  1
   10     3    11  1
   11     4    12  1
   12     4    13  1
   13     4    14  1

@<TRIPOS>MOLECULE
MOL
   14   13    0    0    0




@<TRIPOS>ATOM
   1   C1        2.6690    1.0520   -1.8840   c3 0 -0.06  0.0000
   2   C2        1.2420    0.8100   -1.4650   c3 0 -0.05  0.0000
   3   C3        1.1660    0.0560   -0.1540   c3 0 -0.05  0.0000
   4   C4       -0.2610   -0.1870    0.2650   c3 0 -0.06  0.0000
   5   H1        3.3506    1.0157   -0.9994   hc 0 0.023  0.0000
   6   H2        3.0025    0.2770   -2.6150   hc 0 0.023  0.0000
   7   H3        2.7674    2.0559   -2.3643   hc 0 0.023  0.0000
   8   H4        0.7070    1.7910   -1.3620   hc 0 0.026  0.0000
   9   H5        0.7090    0.2270   -2.2620   hc 0 0.026  0.0000
  10   H6        1.7010   -0.9250   -0.2580   hc 0 0.026  0.0000
  11   H7        1.6990    0.6390    0.6420   hc 0 0.026  0.0000
  12   H8       -0.2920   -0.7430    1.2320   hc 0 0.023  0.0000
  13   H9       -0.8030    0.7810    0.3960   hc 0 0.023  0.0000
  14  H10       -0.8010   -0.7880   -0.5060   hc 0 0.023  0.0000
@<TRIPOS>BOND
    1     1     2  1
    2     1     5  1
    3     1     6  1
    4     1     7  1
    5     2     3  1
    6     2     8  1
    7     2     9  1
    8     3     4  1
    9     3    10  1
   10     3    11  1
   11     4    12  1
   12     4    13  1
   13     4    14  1

@<TRIPOS>MOLECULE
MOL
   14   13    0    0    0




@<TRIPOS>ATOM
   1   C1        2.6690    1.0520   -1.8840   c3 0 -0.06  0.0000
   2   C2        1.2420    0.8100   -1.4650   c3 0 -0.05  0.0000
   3   C3        1.1660    0.0560   -0.1540   c3 0 -0.05  0.0000
   4   C4       -0.2610   -0.1870    0.2650   c3 0 -0.06  0.0000
   5   H1        3.3529    0.9978   -1.0020   hc 0 0.023  0.0000
   6   H2        2.9967    0.2876   -2.6287   hc 0 0.023  0.0000
   7   H3        2.7710    2.0632   -2.3480   hc 0 0.023  0.0000
   8   H4        0.7070    1.7910   -1.3620   hc 0 0.026  0.0000
   9   H5        0.7090    0.2270   -2.2620   hc 0 0.026  0.0000
  10   H6        1.7010   -0.9250   -0.2580   hc 0 0.026  0.0000
  11   H7        1.6990    0.6390    0.6420   hc 0 0.026  0.0000
  12   H8       -0.2920   -0.7430    1.2320   hc 0 0.023  0.0000
  13   H9       -0.8030    0.7810    0.3960   hc 0 0.023  0.0000
  14  H10       -0.8010   -0.7880   -0.5060   hc 0 0.023  0.0000
@<TRIPOS>BOND
    1     1     2  1
    2     1     5  1
    3     1     6  1
    4     1     7  1
    5     2     3  1
    6     2     8  1
    7     2     9  1
    8     3     4  1
    9     3    10  1
   10     3    11  1
   11     4    12  1
   12     4    13  1
   13     4    14  1

@<TRIPOS>MOLECULE
MOL
   14   13    0    0    0




@<TRIPOS>ATOM
   1   C1        2.6690    1.0520   -1.8840   c3 0 -0.06  0.0000
   2   C2        1.2420    0.8100   -1.4650   c3 0 -0.05  0.0000
   3   C3        1.1660    0.0560   -0.1540   c3 0 -0.05  0.0000
   4   C4       -0.2610   -0.1870    0.2650   c3 0 -0.06  0.0000
   5   H1        3.3550    0.9799   -1.0050   hc 0 0.023  0.0000
   6   H2        2.9910    0.2984   -2.6421   hc 0 0.023  0.0000
   7   H3        2.7746    2.0703   -2.3315   hc 0 0.023  0.0000
   8   H4        0.7070    1.7910   -1.3620   hc 0 0.026  0.0000
   9   H5        0.7090    0.2270   -2.2620   hc 0 0.026  0.0000
  10   H6        1.7010   -0.9250   -0.2580   hc 0 0.026  0.0000
  11   H7        1.6990    0.6390    0.6420   hc 0 0.026  0.0000
  12   H8       -0.2920   -0.7430    1.2320   hc 0 0.023  0.0000
  13   H9       -0.8030    0.7810    0.3960   hc 0 0.023  0.0000
  14  H10       -0.8010   -0.7880   -0.5060   hc 0 0.023  0.0000
@<TRIPOS>BOND
    1     1     2  1
    2     1     5  1
    3     1     6  1
    4     1     7  1
    5     2     3  1
    6     2     8  1
    7     2     9  1
    8     3     4  1
    9     3    10  1
   10     3    11  1
   11     4    12  1
   12     4    13  1
   13     4    14  1

@<TRIPOS>MOLECULE
MOL
   14   13    0    0    0




@<TRIPOS>ATOM
   1   C1        2.6690    1.0520   -1.8840   c3 0 -0.06  0.0000
   2   C2        1.2420    0.8100   -1.4650   c3 0 -0.05  0.0000
   3   C3        1.1660    0.0560   -0.1540   c3 0 -0.05  0.0000
   4   C4       -0.2610   -0.1870    0.2650   c3 0 -0.06  0.0000
   5   H1        3.3571    0.9621   -1.0083   hc 0 0.023  0.0000
   6   H2        2.9852    0.3095   -2.6554   hc 0 0.023  0.0000
   7   H3        2.7783    2.0770   -2.3149   hc 0 0.023  0.0000
   8   H4        0.7070    1.7910   -1.3620   hc 0 0.026  0.0000
   9   H5        0.7090    0.2270   -2.2620   hc 0 0.026  0.0000
  10   H6        1.7010   -0.9250   -0.2580   hc 0 0.026  0.0000
  11   H7        1.6990    0.6390    0.6420   hc 0 0.026  0.0000
  12   H8       -0.2920   -0.7430    1.2320   hc 0 0.023  0.0000
  13   H9       -0.8030    0.7810    0.3960   hc 0 0.023  0.0000
  14  H10       -0.8010   -0.7880   -0.5060   hc 0 0.023  0.0000
@<TRIPOS>BOND
    1     1     2  1
    2     1     5  1
    3     1     6  1
    4     1     7  1
    5     2     3  1
    6     2     8  1
    7     2     9  1
    8     3     4  1
    9     3    10  1
   10     3    11  1
   11     4    12  1
   12     4    13  1
   13     4    14  1

@<TRIPOS>MOLECULE
MOL
   14   13    0    0    0




@<TRIPOS>ATOM
   1   C1        2.6690    1.0520   -1.8840   c3 0 -0.06  0.0000
   2   C2        1.2420    0.8100   -1.4650   c3 0 -0.05  0.0000
   3   C3        1.1660    0.0560   -0.1540   c3 0 -0.05  0.0000
   4   C4       -0.2610   -0.1870    0.2650   c3 0 -0.06  0.0000
   5   H1        3.3591    0.9443   -1.0118   hc 0 0.023  0.0000
   6   H2        2.9794    0.3209   -2.6685   hc 0 0.023  0.0000
   7   H3        2.7821    2.0834   -2.2982   hc 0 0.023  0.0000
   8   H4        0.7070    1.7910   -1.3620   hc 0 0.026  0.0000
   9   H5        0.7090    0.2270   -2.2620   hc 0 0.026  0.0000
  10   H6        1.7010   -0.9250   -0.2580   hc 0 0.026  0.0000
  11   H7        1.6990    0.6390    0.6420   hc 0 0.026  0.0000
  12   H8       -0.2920   -0.7430    1.2320   hc 0 0.023  0.0000
  13   H9       -0.8030    0.7810    0.3960   hc 0 0.023  0.0000
  14  H10       -0.8010   -0.7880   -0.5060   hc 0 0.023  0.0000
@<TRIPOS>BOND
    1     1     2  1
    2     1     5  1
    3     1     6  1
    4     1     7  1
    5     2     3  1
    6     2     8  1
    7     2     9  1
    8     3     4  1
    9     3    10  1
   10     3    11  1
   11     4    12  1
   12     4    13  1
   13     4    14  1

@<TRIPOS>MOLECULE
MOL
   14   13    0    0    0




@<TRIPOS>ATOM
   1   C1        2.6690    1.0520   -1.8840   c3 0 -0.06  0.0000
   2   C2        1.2420    0.8100   -1.4650   c3 0 -0.05  0.0000
   3   C3        1.1660    0.0560   -0.1540   c3 0 -0.05  0.0000
   4   C4       -0.2610   -0.1870    0.2650   c3 0 -0.06  0.0000
   5   H1        3.3609    0.9266   -1.0157   hc 0 0.023  0.0000
   6   H2        2.9737    0.3325   -2.6813   hc 0 0.023  0.0000
   7   H3        2.7860    2.0896   -2.2814   hc 0 0.023  0.0000
   8   H4        0.7070    1.7910   -1.3620   hc 0 0.026  0.0000
   9   H5        0.7090    0.2270   -2.2620   hc 0 0.026  0.0000
  10   H6        1.7010   -0.9250   -0.2580   hc 0 0.026  0.0000
  11   H7        1.6990    0.6390    0.6420   hc 0 0.026  0.0000
  12   H8       -0.2920   -0.7430    1.2320   hc 0 0.023  0.0000
  13   H9       -0.8030    0.7810    0.3960   hc 0 0.023  0.0000
  14  H10       -0.8010   -0.7880   -0.5060   hc 0 0.023  0.0000
@<TRIPOS>BOND
    1     1     2  1
    2     1     5  1
    3     1     6  1
    4     1     7  1
    5     2     3  1
    6     2     8  1
    7     2     9  1
    8     3     4  1
    9     3    10  1
   10     3    11  1
   11     4    12  1
   12     4    13  1
   13     4    14  1

@<TRIPOS>MOLECULE
MOL
   14   13    0    0    0




@<TRIPOS>ATOM
   1   C1        2.6690    1.0520   -1.8840   c3 0 -0.06  0.0000
   2   C2        1.2420    0.8100   -1.4650   c3 0 -0.05  0.0000
   3   C3        1.1660    0.0560   -0.1540   c3 0 -0.05  0.0000
   4   C4       -0.2610   -0.1870    0.2650   c3 0 -0.06  0.0000
   5   H1        3.3627    0.9089   -1.0199   hc 0 0.023  0.0000
   6   H2        2.9680    0.3443   -2.6940   hc 0 0.023  0.0000
   7   H3        2.7900    2.0954   -2.2646   hc 0 0.023  0.0000
   8   H4        0.7070    1.7910   -1.3620   hc 0 0.026  0.0000
   9   H5        0.7090    0.2270   -2.2620   hc 0 0.026  0.0000
  10   H6        1.7010   -0.9250   -0.2580   hc 0 0.026  0.0000
  11   H7        1.6990    0.6390    0.6420   hc 0 0.026  0.0000
  12   H8       -0.2920   -0.7430    1.2320   hc 0 0.023  0.0000
  13   H9       -0.8030    0.7810    0.3960   hc 0 0.023  0.0000
  14  H10       -0.8010   -0.7880   -0.5060   hc 0 0.023  0.0000
@<TRIPOS>BOND
    1     1     2  1
    2     1     5  1
    3     1     6  1
    4     1     7  1
    5     2     3  1
    6     2     8  1
    7     2     9  1
    8     3     4  1
    9     3    10  1
   10     3    11  1
   11     4    12  1
   12     4    13  1
   13     4    14  1

@<TRIPOS>MOLECULE
MOL
   14   13    0    0    0




@<TRIPOS>ATOM
   1   C1        2.6690    1.0520   -1.8840   c3 0 -0.06  0.0000
   2   C2        1.2420    0.8100   -1.4650   c3 0 -0.05  0.0000
   3   C3        1.1660    0.0560   -0.1540   c3 0 -0.05  0.0000
   4   C4       -0.2610   -0.1870    0.2650   c3 0 -0.06  0.0000
   5   H1        3.3644    0.8913   -1.0243   hc 0 0.023  0.0000
   6   H2        2.9623    0.3563   -2.7064   hc 0 0.023  0.0000
   7   H3        2.7940    2.1010   -2.2476   hc 0 0.023  0.0000
   8   H4        0.7070    1.7910   -1.3620   hc 0 0.026  0.0000
   9   H5        0.7090    0.2270   -2.2620   hc 0 0.026  0.0000
  10   H6        1.7010   -0.9250   -0.2580   hc 0 0.026  0.0000
  11   H7        1.6990    0.6390    0.6420   hc 0 0.026  0.0000
  12   H8       -0.2920   -0.7430    1.2320   hc 0 0.023  0.0000
  13   H9       -0.8030    0.7810    0.3960   hc 0 0.023  0.0000
  14  H10       -0.8010   -0.7880   -0.5060   hc 0 0.023  0.0000
@<TRIPOS>BOND
    1     1     2  1
    2     1     5  1
    3     1     6  1
    4     1     7  1
    5     2     3  1
    6     2     8  1
    7     2     9  1
    8     3     4  1
    9     3    10  1
   10     3    11  1
   11     4    12  1
   12     4    13  1
   13     4    14  1

@<TRIPOS>MOLECULE
MOL
   14   13    0    0    0




@<TRIPOS>ATOM
   1   C1        2.6690    1.0520   -1.8840   c3 0 -0.06  0.0000
   2   C2        1.2420    0.8100   -1.4650   c3 0 -0.05  0.0000
   3   C3        1.1660    0.0560   -0.1540   c3 0 -0.05  0.0000
   4   C4       -0.2610   -0.1870    0.2650   c3 0 -0.06  0.0000
   5   H1        3.3660    0.8737   -1.0291   hc 0 0.023  0.0000
   6   H2        2.9566    0.3686   -2.7186   hc 0 0.023  0.0000
   7   H3        2.7981    2.1062   -2.2306   hc 0 0.023  0.0000
   8   H4        0.7070    1.7910   -1.3620   hc 0 0.026  0.0000
   9   H5        0.7090    0.2270   -2.2620   hc 0 0.026  0.0000
  10   H6        1.7010   -0.9250   -0.2580   hc 0 0.026  0.0000
  11   H7        1.6990    0.6390    0.6420   hc 0 0.026  0.0000
  12   H8       -0.2920   -0.7430    1.2320   hc 0 0.023  0.0000
  13   H9       -0.8030    0.7810    0.3960   hc 0 0.023  0.0000
  14  H10       -0.8010   -0.7880   -0.5060   hc 0 0.023  0.0000
@<TRIPOS>BOND
    1     1     2  1
    2     1     5  1
    3     1     6  1
    4     1     7  1
    5     2     3  1
    6     2     8  1
    7     2     9  1
    8     3     4  1
    9     3    10  1
   10     3    11  1
   11     4    12  1
   12     4    13  1
   13     4    14  1

@<TRIPOS>MOLECULE
MOL
   14   13    0    0    0




@<TRIPOS>ATOM
   1   C1        2.6690    1.0520   -1.8840   c3 0 -0.06  0.0000
   2   C2        1.2420    0.8100   -1.4650   c3 0 -0.05  0.0000
   3   C3        1.1660    0.0560   -0.1540   c3 0 -0.05  0.0000
   4   C4       -0.2610   -0.1870    0.2650   c3 0 -0.06  0.0000
   5   H1        3.3674    0.8562   -1.0341   hc 0 0.023  0.0000
   6   H2        2.9510    0.3811   -2.7306   hc 0 0.023  0.0000
   7   H3        2.8023    2.1112   -2.2135   hc 0 0.023  0.0000
   8   H4        0.7070    1.7910   -1.3620   hc 0 0.026  0.0000
   9   H5        0.7090    0.2270   -2.2620   hc 0 0.026  0.0000
  10   H6        1.7010   -0.9250   -0.2580   hc 0 0.026  0.0000
  11   H7        1.6990    0.6390    0.6420   hc 0 0.026  0.0000
  12   H8       -0.2920   -0.7430    1.2320   hc 0 0.023  0.0000
  13   H9       -0.8030    0.7810    0.3960   hc 0 0.023  0.0000
  14  H10       -0.8010   -0.7880   -0.5060   hc 0 0.023  0.0000
@<TRIPOS>BOND
    1     1     2  1
    2     1     5  1
    3     1     6  1
    4     1     7  1
    5     2     3  1
    6     2     8  1
    7     2     9  1
    8     3     4  1
    9     3    10  1
   10     3    11  1
   11     4    12  1
   12     4    13  1
   13     4    14  1

@<TRIPOS>MOLECULE
MOL
   14   13    0    0    0




@<TRIPOS>ATOM
   1   C1        2.6690    1.0520   -1.8840   c3 0 -0.06  0.0000
   2   C2        1.2420    0.8100   -1.4650   c3 0 -0.05  0.0000
   3   C3        1.1660    0.0560   -0.1540   c3 0 -0.05  0.0000
   4   C4       -0.2610   -0.1870    0.2650   c3 0 -0.06  0.0000
   5   H1        3.3688    0.8388   -1.0395   hc 0 0.023  0.0000
   6   H2        2.9453    0.3939   -2.7424   hc 0 0.023  0.0000
   7   H3        2.8066    2.1158   -2.1963   hc 0 0.023  0.0000
   8   H4        0.7070    1.7910   -1.3620   hc 0 0.026  0.0000
   9   H5        0.7090    0.2270   -2.2620   hc 0 0.026  0.0000
  10   H6        1.7010   -0.9250   -0.2580   hc 0 0.026  0.0000
  11   H7        1.6990    0.6390    0.6420   hc 0 0.026  0.0000
  12   H8       -0.2920   -0.7430    1.2320   hc 0 0.023  0.0000
  13   H9       -0.8030    0.7810    0.3960   hc 0 0.023  0.0000
  14  H10       -0.8010   -0.7880   -0.5060   hc 0 0.023  0.0000
@<TRIPOS>BOND
    1     1     2  1
    2     1     5  1
    3     1     6  1
    4     1     7  1
    5     2     3  1
    6     2     8  1
    7     2     9  1
    8     3     4  1
    9     3    10  1
   10     3    11  1
   11     4    12  1
   12     4    13  1
   13     4    14  1

@<TRIPOS>MOLECULE
MOL
   14   13    0    0    0




@<TRIPOS>ATOM
   1   C1        2.6690    1.0520   -1.8840   c3 0 -0.06  0.0000
   2   C2        1.2420    0.8100   -1.4650   c3 0 -0.05  0.0000
   3   C3        1.1660    0.0560   -0.1540   c3 0 -0.05  0.0000
   4   C4       -0.2610   -0.1870    0.2650   c3 0 -0.06  0.0000
   5   H1        3.3701    0.8215   -1.0451   hc 0 0.023  0.0000
   6   H2        2.9398    0.4068   -2.7539   hc 0 0.023  0.0000
   7   H3        2.8109    2.1202   -2.1791   hc 0 0.023  0.0000
   8   H4        0.7070    1.7910   -1.3620   hc 0 0.026  0.0000
   9   H5        0.7090    0.2270   -2.2620   hc 0 0.026  0.0000
  10   H6        1.7010   -0.9250   -0.2580   hc 0 0.026  0.0000
  11   H7        1.6990    0.6390    0.6420   hc 0 0.026  0.0000
  12   H8       -0.2920   -0.7430    1.2320   hc 0 0.023  0.0000
  13   H9       -0.8030    0.7810    0.3960   hc 0 0.023  0.0000
  14  H10       -0.8010   -0.7880   -0.5060   hc 0 0.023  0.0000
@<TRIPOS>BOND
    1     1     2  1
    2     1     5  1
    3     1     6  1
    4     1     7  1
    5     2     3  1
    6     2     8  1
    7     2     9  1
    8     3     4  1
    9     3    10  1
   10     3    11  1
   11     4    12  1
   12     4    13  1
   13     4    14  1

@<TRIPOS>MOLECULE
MOL
   14   13    0    0    0




@<TRIPOS>ATOM
   1   C1        2.6690    1.0520   -1.8840   c3 0 -0.06  0.0000
   2   C2        1.2420    0.8100   -1.4650   c3 0 -0.05  0.0000
   3   C3        1.1660    0.0560   -0.1540   c3 0 -0.05  0.0000
   4   C4       -0.2610   -0.1870    0.2650   c3 0 -0.06  0.0000
   5   H1        3.3713    0.8043   -1.0510   hc 0 0.023  0.0000
   6   H2        2.9342    0.4200   -2.7652   hc 0 0.023  0.0000
   7   H3        2.8153    2.1242   -2.1618   hc 0 0.023  0.0000
   8   H4        0.7070    1.7910   -1.3620   hc 0 0.026  0.0000
   9   H5        0.7090    0.2270   -2.2620   hc 0 0.026  0.0000
  10   H6        1.7010   -0.9250   -0.2580   hc 0 0.026  0.0000
  11   H7        1.6990    0.6390    0.6420   hc 0 0.026  0.0000
  12   H8       -0.2920   -0.7430    1.2320   hc 0 0.023  0.0000
  13   H9       -0.8030    0.7810    0.3960   hc 0 0.023  0.0000
  14  H10       -0.8010   -0.7880   -0.5060   hc 0 0.023  0.0000
@<TRIPOS>BOND
    1     1     2  1
    2     1     5  1
    3     1     6  1
    4     1     7  1
    5     2     3  1
    6     2     8  1
    7     2     9  1
    8     3     4  1
    9     3    10  1
   10     3    11  1
   11     4    12  1
   12     4    13  1
   13     4    14  1

@<TRIPOS>MOLECULE
MOL
   14   13    0    0    0




@<TRIPOS>ATOM
   1   C1        2.6690    1.0520   -1.8840   c3 0 -0.06  0.0000
   2   C2        1.2420    0.8100   -1.4650   c3 0 -0.05  0.0000
   3   C3        1.1660    0.0560   -0.1540   c3 0 -0.05  0.0000
   4   C4       -0.2610   -0.1870    0.2650   c3 0 -0.06  0.0000
   5   H1        3.3724    0.7872   -1.0572   hc 0 0.023  0.0000
   6   H2        2.9287    0.4334   -2.7763   hc 0 0.023  0.0000
   7   H3        2.8197    2.1279   -2.1445   hc 0 0.023  0.0000
   8   H4        0.7070    1.7910   -1.3620   hc 0 0.026  0.0000
   9   H5        0.7090    0.2270   -2.2620   hc 0 0.026  0.0000
  10   H6        1.7010   -0.9250   -0.2580   hc 0 0.026  0.0000
  11   H7        1.6990    0.6390    0.6420   hc 0 0.026  0.0000
  12   H8       -0.2920   -0.7430    1.2320   hc 0 0.023  0.0000
  13   H9       -0.8030    0.7810    0.3960   hc 0 0.023  0.0000
  14  H10       -0.8010   -0.7880   -0.5060   hc 0 0.023  0.0000
@<TRIPOS>BOND
    1     1     2  1
    2     1     5  1
    3     1     6  1
    4     1     7  1
    5     2     3  1
    6     2     8  1
    7     2     9  1
    8     3     4  1
    9     3    10  1
   10     3    11  1
   11     4    12  1
   12     4    13  1
   13     4    14  1

@<TRIPOS>MOLECULE
MOL
   14   13    0    0    0




@<TRIPOS>ATOM
   1   C1        2.6690    1.0520   -1.8840   c3 0 -0.06  0.0000
   2   C2        1.2420    0.8100   -1.4650   c3 0 -0.05  0.0000
   3   C3        1.1660    0.0560   -0.1540   c3 0 -0.05  0.0000
   4   C4       -0.2610   -0.1870    0.2650   c3 0 -0.06  0.0000
   5   H1        3.3734    0.7701   -1.0637   hc 0 0.023  0.0000
   6   H2        2.9232    0.4470   -2.7871   hc 0 0.023  0.0000
   7   H3        2.8243    2.1314   -2.1271   hc 0 0.023  0.0000
   8   H4        0.7070    1.7910   -1.3620   hc 0 0.026  0.0000
   9   H5        0.7090    0.2270   -2.2620   hc 0 0.026  0.0000
  10   H6        1.7010   -0.9250   -0.2580   hc 0 0.026  0.0000
  11   H7        1.6990    0.6390    0.6420   hc 0 0.026  0.0000
  12   H8       -0.2920   -0.7430    1.2320   hc 0 0.023  0.0000
  13   H9       -0.8030    0.7810    0.3960   hc 0 0.023  0.0000
  14  H10       -0.8010   -0.7880   -0.5060   hc 0 0.023  0.0000
@<TRIPOS>BOND
    1     1     2  1
    2     1     5  1
    3     1     6  1
    4     1     7  1
    5     2     3  1
    6     2     8  1
    7     2     9  1
    8     3     4  1
    9     3    10  1
   10     3    11  1
   11     4    12  1
   12     4    13  1
   13     4    14  1

@<TRIPOS>MOLECULE
MOL
   14   13    0    0    0




@<TRIPOS>ATOM
   1   C1        2.6690    1.0520   -1.8840   c3 0 -0.06  0.0000
   2   C2        1.2420    0.8100   -1.4650   c3 0 -0.05  0.0000
   3   C3        1.1660    0.0560   -0.1540   c3 0 -0.05  0.0000
   4   C4       -0.2610   -0.1870    0.2650   c3 0 -0.06  0.0000
   5   H1        3.3742    0.7532   -1.0705   hc 0 0.023  0.0000
   6   H2        2.9178    0.4608   -2.7977   hc 0 0.023  0.0000
   7   H3        2.8289    2.1345   -2.1097   hc 0 0.023  0.0000
   8   H4        0.7070    1.7910   -1.3620   hc 0 0.026  0.0000
   9   H5        0.7090    0.2270   -2.2620   hc 0 0.026  0.0000
  10   H6        1.7010   -0.9250   -0.2580   hc 0 0.026  0.0000
  11   H7        1.6990    0.6390    0.6420   hc 0 0.026  0.0000
  12   H8       -0.2920   -0.7430    1.2320   hc 0 0.023  0.0000
  13   H9       -0.8030    0.7810    0.3960   hc 0 0.023  0.0000
  14  H10       -0.8010   -0.7880   -0.5060   hc 0 0.023  0.0000
@<TRIPOS>BOND
    1     1     2  1
    2     1     5  1
    3     1     6  1
    4     1     7  1
    5     2     3  1
    6     2     8  1
    7     2     9  1
    8     3     4  1
    9     3    10  1
   10     3    11  1
   11     4    12  1
   12     4    13  1
   13     4    14  1

@<TRIPOS>MOLECULE
MOL
   14   13    0    0    0




@<TRIPOS>ATOM
   1   C1        2.6690    1.0520   -1.8840   c3 0 -0.06  0.0000
   2   C2        1.2420    0.8100   -1.4650   c3 0 -0.05  0.0000
   3   C3        1.1660    0.0560   -0.1540   c3 0 -0.05  0.0000
   4   C4       -0.2610   -0.1870    0.2650   c3 0 -0.06  0.0000
   5   H1        3.3750    0.7364   -1.0775   hc 0 0.023  0.0000
   6   H2        2.9123    0.4748   -2.8080   hc 0 0.023  0.0000
   7   H3        2.8335    2.1373   -2.0922   hc 0 0.023  0.0000
   8   H4        0.7070    1.7910   -1.3620   hc 0 0.026  0.0000
   9   H5        0.7090    0.2270   -2.2620   hc 0 0.026  0.0000
  10   H6        1.7010   -0.9250   -0.2580   hc 0 0.026  0.0000
  11   H7        1.6990    0.6390    0.6420   hc 0 0.026  0.0000
  12   H8       -0.2920   -0.7430    1.2320   hc 0 0.023  0.0000
  13   H9       -0.8030    0.7810    0.3960   hc 0 0.023  0.0000
  14  H10       -0.8010   -0.7880   -0.5060   hc 0 0.023  0.0000
@<TRIPOS>BOND
    1     1     2  1
    2     1     5  1
    3     1     6  1
    4     1     7  1
    5     2     3  1
    6     2     8  1
    7     2     9  1
    8     3     4  1
    9     3    10  1
   10     3    11  1
   11     4    12  1
   12     4    13  1
   13     4    14  1

@<TRIPOS>MOLECULE
MOL
   14   13    0    0    0




@<TRIPOS>ATOM
   1   C1        2.6690    1.0520   -1.8840   c3 0 -0.06  0.0000
   2   C2        1.2420    0.8100   -1.4650   c3 0 -0.05  0.0000
   3   C3        1.1660    0.0560   -0.1540   c3 0 -0.05  0.0000
   4   C4       -0.2610   -0.1870    0.2650   c3 0 -0.06  0.0000
   5   H1        3.3757    0.7197   -1.0849   hc 0 0.023  0.0000
   6   H2        2.9070    0.4889   -2.8181   hc 0 0.023  0.0000
   7   H3        2.8382    2.1398   -2.0747   hc 0 0.023  0.0000
   8   H4        0.7070    1.7910   -1.3620   hc 0 0.026  0.0000
   9   H5        0.7090    0.2270   -2.2620   hc 0 0.026  0.0000
  10   H6        1.7010   -0.9250   -0.2580   hc 0 0.026  0.0000
  11   H7        1.6990    0.6390    0.6420   hc 0 0.026  0.0000
  12   H8       -0.2920   -0.7430    1.2320   hc 0 0.023  0.0000
  13   H9       -0.8030    0.7810    0.3960   hc 0 0.023  0.0000
  14  H10       -0.8010   -0.7880   -0.5060   hc 0 0.023  0.0000
@<TRIPOS>BOND
    1     1     2  1
    2     1     5  1
    3     1     6  1
    4     1     7  1
    5     2     3  1
    6     2     8  1
    7     2     9  1
    8     3     4  1
    9     3    10  1
   10     3    11  1
   11     4    12  1
   12     4    13  1
   13     4    14  1

@<TRIPOS>MOLECULE
MOL
   14   13    0    0    0




@<TRIPOS>ATOM
   1   C1        2.6690    1.0520   -1.8840   c3 0 -0.06  0.0000
   2   C2        1.2420    0.8100   -1.4650   c3 0 -0.05  0.0000
   3   C3        1.1660    0.0560   -0.1540   c3 0 -0.05  0.0000
   4   C4       -0.2610   -0.1870    0.2650   c3 0 -0.06  0.0000
   5   H1        3.3763    0.7031   -1.0925   hc 0 0.023  0.0000
   6   H2        2.9016    0.5033   -2.8280   hc 0 0.023  0.0000
   7   H3        2.8430    2.1419   -2.0572   hc 0 0.023  0.0000
   8   H4        0.7070    1.7910   -1.3620   hc 0 0.026  0.0000
   9   H5        0.7090    0.2270   -2.2620   hc 0 0.026  0.0000
  10   H6        1.7010   -0.9250   -0.2580   hc 0 0.026  0.0000
  11   H7        1.6990    0.6390    0.6420   hc 0 0.026  0.0000
  12   H8       -0.2920   -0.7430    1.2320   hc 0 0.023  0.0000
  13   H9       -0.8030    0.7810    0.3960   hc 0 0.023  0.0000
  14  H10       -0.8010   -0.7880   -0.5060   hc 0 0.023  0.0000
@<TRIPOS>BOND
    1     1     2  1
    2     1     5  1
    3     1     6  1
    4     1     7  1
    5     2     3  1
    6     2     8  1
    7     2     9  1
    8     3     4  1
    9     3    10  1
   10     3    11  1
   11     4    12  1
   12     4    13  1
   13     4    14  1

@<TRIPOS>MOLECULE
MOL
   14   13    0    0    0




@<TRIPOS>ATOM
   1   C1        2.6690    1.0520   -1.8840   c3 0 -0.06  0.0000
   2   C2        1.2420    0.8100   -1.4650   c3 0 -0.05  0.0000
   3   C3        1.1660    0.0560   -0.1540   c3 0 -0.05  0.0000
   4   C4       -0.2610   -0.1870    0.2650   c3 0 -0.06  0.0000
   5   H1        3.3768    0.6867   -1.1004   hc 0 0.023  0.0000
   6   H2        2.8964    0.5179   -2.8376   hc 0 0.023  0.0000
   7   H3        2.8478    2.1438   -2.0397   hc 0 0.023  0.0000
   8   H4        0.7070    1.7910   -1.3620   hc 0 0.026  0.0000
   9   H5        0.7090    0.2270   -2.2620   hc 0 0.026  0.0000
  10   H6        1.7010   -0.9250   -0.2580   hc 0 0.026  0.0000
  11   H7        1.6990    0.6390    0.6420   hc 0 0.026  0.0000
  12   H8       -0.2920   -0.7430    1.2320   hc 0 0.023  0.0000
  13   H9       -0.8030    0.7810    0.3960   hc 0 0.023  0.0000
  14  H10       -0.8010   -0.7880   -0.5060   hc 0 0.023  0.0000
@<TRIPOS>BOND
    1     1     2  1
    2     1     5  1
    3     1     6  1
    4     1     7  1
    5     2     3  1
    6     2     8  1
    7     2     9  1
    8     3     4  1
    9     3    10  1
   10     3    11  1
   11     4    12  1
   12     4    13  1
   13     4    14  1

@<TRIPOS>MOLECULE
MOL
   14   13    0    0    0




@<TRIPOS>ATOM
   1   C1        2.6690    1.0520   -1.8840   c3 0 -0.06  0.0000
   2   C2        1.2420    0.8100   -1.4650   c3 0 -0.05  0.0000
   3   C3        1.1660    0.0560   -0.1540   c3 0 -0.05  0.0000
   4   C4       -0.2610   -0.1870    0.2650   c3 0 -0.06  0.0000
   5   H1        3.3771    0.6704   -1.1085   hc 0 0.023  0.0000
   6   H2        2.8911    0.5326   -2.8469   hc 0 0.023  0.0000
   7   H3        2.8527    2.1453   -2.0221   hc 0 0.023  0.0000
   8   H4        0.7070    1.7910   -1.3620   hc 0 0.026  0.0000
   9   H5        0.7090    0.2270   -2.2620   hc 0 0.026  0.0000
  10   H6        1.7010   -0.9250   -0.2580   hc 0 0.026  0.0000
  11   H7        1.6990    0.6390    0.6420   hc 0 0.026  0.0000
  12   H8       -0.2920   -0.7430    1.2320   hc 0 0.023  0.0000
  13   H9       -0.8030    0.7810    0.3960   hc 0 0.023  0.0000
  14  H10       -0.8010   -0.7880   -0.5060   hc 0 0.023  0.0000
@<TRIPOS>BOND
    1     1     2  1
    2     1     5  1
    3     1     6  1
    4     1     7  1
    5     2     3  1
    6     2     8  1
    7     2     9  1
    8     3     4  1
    9     3    10  1
   10     3    11  1
   11     4    12  1
   12     4    13  1
   13     4    14  1

@<TRIPOS>MOLECULE
MOL
   14   13    0    0    0




@<TRIPOS>ATOM
   1   C1        2.6690    1.0520   -1.8840   c3 0 -0.06  0.0000
   2   C2        1.2420    0.8100   -1.4650   c3 0 -0.05  0.0000
   3   C3        1.1660    0.0560   -0.1540   c3 0 -0.05  0.0000
   4   C4       -0.2610   -0.1870    0.2650   c3 0 -0.06  0.0000
   5   H1        3.3774    0.6542   -1.1170   hc 0 0.023  0.0000
   6   H2        2.8859    0.5476   -2.8560   hc 0 0.023  0.0000
   7   H3        2.8577    2.1466   -2.0046   hc 0 0.023  0.0000
   8   H4        0.7070    1.7910   -1.3620   hc 0 0.026  0.0000
   9   H5        0.7090    0.2270   -2.2620   hc 0 0.026  0.0000
  10   H6        1.7010   -0.9250   -0.2580   hc 0 0.026  0.0000
  11   H7        1.6990    0.6390    0.6420   hc 0 0.026  0.0000
  12   H8       -0.2920   -0.7430    1.2320   hc 0 0.023  0.0000
  13   H9       -0.8030    0.7810    0.3960   hc 0 0.023  0.0000
  14  H10       -0.8010   -0.7880   -0.5060   hc 0 0.023  0.0000
@<TRIPOS>BOND
    1     1     2  1
    2     1     5  1
    3     1     6  1
    4     1     7  1
    5     2     3  1
    6     2     8  1
    7     2     9  1
    8     3     4  1
    9     3    10  1
   10     3    11  1
   11     4    12  1
   12     4    13  1
   13     4    14  1

@<TRIPOS>MOLECULE
MOL
   14   13    0    0    0




@<TRIPOS>ATOM
   1   C1        2.6690    1.0520   -1.8840   c3 0 -0.06  0.0000
   2   C2        1.2420    0.8100   -1.4650   c3 0 -0.05  0.0000
   3   C3        1.1660    0.0560   -0.1540   c3 0 -0.05  0.0000
   4   C4       -0.2610   -0.1870    0.2650   c3 0 -0.06  0.0000
   5   H1        3.3776    0.6381   -1.1257   hc 0 0.023  0.0000
   6   H2        2.8808    0.5627   -2.8648   hc 0 0.023  0.0000
   7   H3        2.8627    2.1475   -1.9870   hc 0 0.023  0.0000
   8   H4        0.7070    1.7910   -1.3620   hc 0 0.026  0.0000
   9   H5        0.7090    0.2270   -2.2620   hc 0 0.026  0.0000
  10   H6        1.7010   -0.9250   -0.2580   hc 0 0.026  0.0000
  11   H7        1.6990    0.6390    0.6420   hc 0 0.026  0.0000
  12   H8       -0.2920   -0.7430    1.2320   hc 0 0.023  0.0000
  13   H9       -0.8030    0.7810    0.3960   hc 0 0.023  0.0000
  14  H10       -0.8010   -0.7880   -0.5060   hc 0 0.023  0.0000
@<TRIPOS>BOND
    1     1     2  1
    2     1     5  1
    3     1     6  1
    4     1     7  1
    5     2     3  1
    6     2     8  1
    7     2     9  1
    8     3     4  1
    9     3    10  1
   10     3    11  1
   11     4    12  1
   12     4    13  1
   13     4    14  1

@<TRIPOS>MOLECULE
MOL
   14   13    0    0    0




@<TRIPOS>ATOM
   1   C1        2.6690    1.0520   -1.8840   c3 0 -0.06  0.0000
   2   C2        1.2420    0.8100   -1.4650   c3 0 -0.05  0.0000
   3   C3        1.1660    0.0560   -0.1540   c3 0 -0.05  0.0000
   4   C4       -0.2610   -0.1870    0.2650   c3 0 -0.06  0.0000
   5   H1        3.3776    0.6222   -1.1346   hc 0 0.023  0.0000
   6   H2        2.8757    0.5779   -2.8734   hc 0 0.023  0.0000
   7   H3        2.8677    2.1481   -1.9694   hc 0 0.023  0.0000
   8   H4        0.7070    1.7910   -1.3620   hc 0 0.026  0.0000
   9   H5        0.7090    0.2270   -2.2620   hc 0 0.026  0.0000
  10   H6        1.7010   -0.9250   -0.2580   hc 0 0.026  0.0000
  11   H7        1.6990    0.6390    0.6420   hc 0 0.026  0.0000
  12   H8       -0.2920   -0.7430    1.2320   hc 0 0.023  0.0000
  13   H9       -0.8030    0.7810    0.3960   hc 0 0.023  0.0000
  14  H10       -0.8010   -0.7880   -0.5060   hc 0 0.023  0.0000
@<TRIPOS>BOND
    1     1     2  1
    2     1     5  1
    3     1     6  1
    4     1     7  1
    5     2     3  1
    6     2     8  1
    7     2     9  1
    8     3     4  1
    9     3    10  1
   10     3    11  1
   11     4    12  1
   12     4    13  1
   13     4    14  1

@<TRIPOS>MOLECULE
MOL
   14   13    0    0    0




@<TRIPOS>ATOM
   1   C1        2.6690    1.0520   -1.8840   c3 0 -0.06  0.0000
   2   C2        1.2420    0.8100   -1.4650   c3 0 -0.05  0.0000
   3   C3        1.1660    0.0560   -0.1540   c3 0 -0.05  0.0000
   4   C4       -0.2610   -0.1870    0.2650   c3 0 -0.06  0.0000
   5   H1        3.3776    0.6065   -1.1438   hc 0 0.023  0.0000
   6   H2        2.8706    0.5934   -2.8816   hc 0 0.023  0.0000
   7   H3        2.8728    2.1484   -1.9519   hc 0 0.023  0.0000
   8   H4        0.7070    1.7910   -1.3620   hc 0 0.026  0.0000
   9   H5        0.7090    0.2270   -2.2620   hc 0 0.026  0.0000
  10   H6        1.7010   -0.9250   -0.2580   hc 0 0.026  0.0000
  11   H7        1.6990    0.6390    0.6420   hc 0 0.026  0.0000
  12   H8       -0.2920   -0.7430    1.2320   hc 0 0.023  0.0000
  13   H9       -0.8030    0.7810    0.3960   hc 0 0.023  0.0000
  14  H10       -0.8010   -0.7880   -0.5060   hc 0 0.023  0.0000
@<TRIPOS>BOND
    1     1     2  1
    2     1     5  1
    3     1     6  1
    4     1     7  1
    5     2     3  1
    6     2     8  1
    7     2     9  1
    8     3     4  1
    9     3    10  1
   10     3    11  1
   11     4    12  1
   12     4    13  1
   13     4    14  1

@<TRIPOS>MOLECULE
MOL
   14   13    0    0    0




@<TRIPOS>ATOM
   1   C1        2.6690    1.0520   -1.8840   c3 0 -0.06  0.0000
   2   C2        1.2420    0.8100   -1.4650   c3 0 -0.05  0.0000
   3   C3        1.1660    0.0560   -0.1540   c3 0 -0.05  0.0000
   4   C4       -0.2610   -0.1870    0.2650   c3 0 -0.06  0.0000
   5   H1        3.3775    0.5909   -1.1533   hc 0 0.023  0.0000
   6   H2        2.8656    0.6090   -2.8896   hc 0 0.023  0.0000
   7   H3        2.8780    2.1484   -1.9343   hc 0 0.023  0.0000
   8   H4        0.7070    1.7910   -1.3620   hc 0 0.026  0.0000
   9   H5        0.7090    0.2270   -2.2620   hc 0 0.026  0.0000
  10   H6        1.7010   -0.9250   -0.2580   hc 0 0.026  0.0000
  11   H7        1.6990    0.6390    0.6420   hc 0 0.026  0.0000
  12   H8       -0.2920   -0.7430    1.2320   hc 0 0.023  0.0000
  13   H9       -0.8030    0.7810    0.3960   hc 0 0.023  0.0000
  14  H10       -0.8010   -0.7880   -0.5060   hc 0 0.023  0.0000
@<TRIPOS>BOND
    1     1     2  1
    2     1     5  1
    3     1     6  1
    4     1     7  1
    5     2     3  1
    6     2     8  1
    7     2     9  1
    8     3     4  1
    9     3    10  1
   10     3    11  1
   11     4    12  1
   12     4    13  1
   13     4    14  1

@<TRIPOS>MOLECULE
MOL
   14   13    0    0    0




@<TRIPOS>ATOM
   1   C1        2.6690    1.0520   -1.8840   c3 0 -0.06  0.0000
   2   C2        1.2420    0.8100   -1.4650   c3 0 -0.05  0.0000
   3   C3        1.1660    0.0560   -0.1540   c3 0 -0.05  0.0000
   4   C4       -0.2610   -0.1870    0.2650   c3 0 -0.06  0.0000
   5   H1        3.3772    0.5755   -1.1630   hc 0 0.023  0.0000
   6   H2        2.8607    0.6247   -2.8974   hc 0 0.023  0.0000
   7   H3        2.8832    2.1480   -1.9168   hc 0 0.023  0.0000
   8   H4        0.7070    1.7910   -1.3620   hc 0 0.026  0.0000
   9   H5        0.7090    0.2270   -2.2620   hc 0 0.026  0.0000
  10   H6        1.7010   -0.9250   -0.2580   hc 0 0.026  0.0000
  11   H7        1.6990    0.6390    0.6420   hc 0 0.026  0.0000
  12   H8       -0.2920   -0.7430    1.2320   hc 0 0.023  0.0000
  13   H9       -0.8030    0.7810    0.3960   hc 0 0.023  0.0000
  14  H10       -0.8010   -0.7880   -0.5060   hc 0 0.023  0.0000
@<TRIPOS>BOND
    1     1     2  1
    2     1     5  1
    3     1     6  1
    4     1     7  1
    5     2     3  1
    6     2     8  1
    7     2     9  1
    8     3     4  1
    9     3    10  1
   10     3    11  1
   11     4    12  1
   12     4    13  1
   13     4    14  1

@<TRIPOS>MOLECULE
MOL
   14   13    0    0    0




@<TRIPOS>ATOM
   1   C1        2.6690    1.0520   -1.8840   c3 0 -0.06  0.0000
   2   C2        1.2420    0.8100   -1.4650   c3 0 -0.05  0.0000
   3   C3        1.1660    0.0560   -0.1540   c3 0 -0.05  0.0000
   4   C4       -0.2610   -0.1870    0.2650   c3 0 -0.06  0.0000
   5   H1        3.3769    0.5602   -1.1730   hc 0 0.023  0.0000
   6   H2        2.8558    0.6406   -2.9048   hc 0 0.023  0.0000
   7   H3        2.8884    2.1474   -1.8993   hc 0 0.023  0.0000
   8   H4        0.7070    1.7910   -1.3620   hc 0 0.026  0.0000
   9   H5        0.7090    0.2270   -2.2620   hc 0 0.026  0.0000
  10   H6        1.7010   -0.9250   -0.2580   hc 0 0.026  0.0000
  11   H7        1.6990    0.6390    0.6420   hc 0 0.026  0.0000
  12   H8       -0.2920   -0.7430    1.2320   hc 0 0.023  0.0000
  13   H9       -0.8030    0.7810    0.3960   hc 0 0.023  0.0000
  14  H10       -0.8010   -0.7880   -0.5060   hc 0 0.023  0.0000
@<TRIPOS>BOND
    1     1     2  1
    2     1     5  1
    3     1     6  1
    4     1     7  1
    5     2     3  1
    6     2     8  1
    7     2     9  1
    8     3     4  1
    9     3    10  1
   10     3    11  1
   11     4    12  1
   12     4    13  1
   13     4    14  1

@<TRIPOS>MOLECULE
MOL
   14   13    0    0    0




@<TRIPOS>ATOM
   1   C1        2.6690    1.0520   -1.8840   c3 0 -0.06  0.0000
   2   C2        1.2420    0.8100   -1.4650   c3 0 -0.05  0.0000
   3   C3        1.1660    0.0560   -0.1540   c3 0 -0.05  0.0000
   4   C4       -0.2610   -0.1870    0.2650   c3 0 -0.06  0.0000
   5   H1        3.3764    0.5451   -1.1833   hc 0 0.023  0.0000
   6   H2        2.8510    0.6566   -2.9120   hc 0 0.023  0.0000
   7   H3        2.8937    2.1464   -1.8818   hc 0 0.023  0.0000
   8   H4        0.7070    1.7910   -1.3620   hc 0 0.026  0.0000
   9   H5        0.7090    0.2270   -2.2620   hc 0 0.026  0.0000
  10   H6        1.7010   -0.9250   -0.2580   hc 0 0.026  0.0000
  11   H7        1.6990    0.6390    0.6420   hc 0 0.026  0.0000
  12   H8       -0.2920   -0.7430    1.2320   hc 0 0.023  0.0000
  13   H9       -0.8030    0.7810    0.3960   hc 0 0.023  0.0000
  14  H10       -0.8010   -0.7880   -0.5060   hc 0 0.023  0.0000
@<TRIPOS>BOND
    1     1     2  1
    2     1     5  1
    3     1     6  1
    4     1     7  1
    5     2     3  1
    6     2     8  1
    7     2     9  1
    8     3     4  1
    9     3    10  1
   10     3    11  1
   11     4    12  1
   12     4    13  1
   13     4    14  1

@<TRIPOS>MOLECULE
MOL
   14   13    0    0    0




@<TRIPOS>ATOM
   1   C1        2.6690    1.0520   -1.8840   c3 0 -0.06  0.0000
   2   C2        1.2420    0.8100   -1.4650   c3 0 -0.05  0.0000
   3   C3        1.1660    0.0560   -0.1540   c3 0 -0.05  0.0000
   4   C4       -0.2610   -0.1870    0.2650   c3 0 -0.06  0.0000
   5   H1        3.3759    0.5301   -1.1938   hc 0 0.023  0.0000
   6   H2        2.8462    0.6728   -2.9189   hc 0 0.023  0.0000
   7   H3        2.8991    2.1451   -1.8644   hc 0 0.023  0.0000
   8   H4        0.7070    1.7910   -1.3620   hc 0 0.026  0.0000
   9   H5        0.7090    0.2270   -2.2620   hc 0 0.026  0.0000
  10   H6        1.7010   -0.9250   -0.2580   hc 0 0.026  0.0000
  11   H7        1.6990    0.6390    0.6420   hc 0 0.026  0.0000
  12   H8       -0.2920   -0.7430    1.2320   hc 0 0.023  0.0000
  13   H9       -0.8030    0.7810    0.3960   hc 0 0.023  0.0000
  14  H10       -0.8010   -0.7880   -0.5060   hc 0 0.023  0.0000
@<TRIPOS>BOND
    1     1     2  1
    2     1     5  1
    3     1     6  1
    4     1     7  1
    5     2     3  1
    6     2     8  1
    7     2     9  1
    8     3     4  1
    9     3    10  1
   10     3    11  1
   11     4    12  1
   12     4    13  1
   13     4    14  1

@<TRIPOS>MOLECULE
MOL
   14   13    0    0    0




@<TRIPOS>ATOM
   1   C1        2.6690    1.0520   -1.8840   c3 0 -0.06  0.0000
   2   C2        1.2420    0.8100   -1.4650   c3 0 -0.05  0.0000
   3   C3        1.1660    0.0560   -0.1540   c3 0 -0.05  0.0000
   4   C4       -0.2610   -0.1870    0.2650   c3 0 -0.06  0.0000
   5   H1        3.3752    0.5154   -1.2045   hc 0 0.023  0.0000
   6   H2        2.8415    0.6891   -2.9256   hc 0 0.023  0.0000
   7   H3        2.9044    2.1435   -1.8470   hc 0 0.023  0.0000
   8   H4        0.7070    1.7910   -1.3620   hc 0 0.026  0.0000
   9   H5        0.7090    0.2270   -2.2620   hc 0 0.026  0.0000
  10   H6        1.7010   -0.9250   -0.2580   hc 0 0.026  0.0000
  11   H7        1.6990    0.6390    0.6420   hc 0 0.026  0.0000
  12   H8       -0.2920   -0.7430    1.2320   hc 0 0.023  0.0000
  13   H9       -0.8030    0.7810    0.3960   hc 0 0.023  0.0000
  14  H10       -0.8010   -0.7880   -0.5060   hc 0 0.023  0.0000
@<TRIPOS>BOND
    1     1     2  1
    2     1     5  1
    3     1     6  1
    4     1     7  1
    5     2     3  1
    6     2     8  1
    7     2     9  1
    8     3     4  1
    9     3    10  1
   10     3    11  1
   11     4    12  1
   12     4    13  1
   13     4    14  1

@<TRIPOS>MOLECULE
MOL
   14   13    0    0    0




@<TRIPOS>ATOM
   1   C1        2.6690    1.0520   -1.8840   c3 0 -0.06  0.0000
   2   C2        1.2420    0.8100   -1.4650   c3 0 -0.05  0.0000
   3   C3        1.1660    0.0560   -0.1540   c3 0 -0.05  0.0000
   4   C4       -0.2610   -0.1870    0.2650   c3 0 -0.06  0.0000
   5   H1        3.3745    0.5008   -1.2155   hc 0 0.023  0.0000
   6   H2        2.8368    0.7056   -2.9319   hc 0 0.023  0.0000
   7   H3        2.9099    2.1416   -1.8296   hc 0 0.023  0.0000
   8   H4        0.7070    1.7910   -1.3620   hc 0 0.026  0.0000
   9   H5        0.7090    0.2270   -2.2620   hc 0 0.026  0.0000
  10   H6        1.7010   -0.9250   -0.2580   hc 0 0.026  0.0000
  11   H7        1.6990    0.6390    0.6420   hc 0 0.026  0.0000
  12   H8       -0.2920   -0.7430    1.2320   hc 0 0.023  0.0000
  13   H9       -0.8030    0.7810    0.3960   hc 0 0.023  0.0000
  14  H10       -0.8010   -0.7880   -0.5060   hc 0 0.023  0.0000
@<TRIPOS>BOND
    1     1     2  1
    2     1     5  1
    3     1     6  1
    4     1     7  1
    5     2     3  1
    6     2     8  1
    7     2     9  1
    8     3     4  1
    9     3    10  1
   10     3    11  1
   11     4    12  1
   12     4    13  1
   13     4    14  1

@<TRIPOS>MOLECULE
MOL
   14   13    0    0    0




@<TRIPOS>ATOM
   1   C1        2.6690    1.0520   -1.8840   c3 0 -0.06  0.0000
   2   C2        1.2420    0.8100   -1.4650   c3 0 -0.05  0.0000
   3   C3        1.1660    0.0560   -0.1540   c3 0 -0.05  0.0000
   4   C4       -0.2610   -0.1870    0.2650   c3 0 -0.06  0.0000
   5   H1        3.3736    0.4865   -1.2267   hc 0 0.023  0.0000
   6   H2        2.8322    0.7221   -2.9380   hc 0 0.023  0.0000
   7   H3        2.9153    2.1394   -1.8123   hc 0 0.023  0.0000
   8   H4        0.7070    1.7910   -1.3620   hc 0 0.026  0.0000
   9   H5        0.7090    0.2270   -2.2620   hc 0 0.026  0.0000
  10   H6        1.7010   -0.9250   -0.2580   hc 0 0.026  0.0000
  11   H7        1.6990    0.6390    0.6420   hc 0 0.026  0.0000
  12   H8       -0.2920   -0.7430    1.2320   hc 0 0.023  0.0000
  13   H9       -0.8030    0.7810    0.3960   hc 0 0.023  0.0000
  14  H10       -0.8010   -0.7880   -0.5060   hc 0 0.023  0.0000
@<TRIPOS>BOND
    1     1     2  1
    2     1     5  1
    3     1     6  1
    4     1     7  1
    5     2     3  1
    6     2     8  1
    7     2     9  1
    8     3     4  1
    9     3    10  1
   10     3    11  1
   11     4    12  1
   12     4    13  1
   13     4    14  1

@<TRIPOS>MOLECULE
MOL
   14   13    0    0    0




@<TRIPOS>ATOM
   1   C1        2.6690    1.0520   -1.8840   c3 0 -0.06  0.0000
   2   C2        1.2420    0.8100   -1.4650   c3 0 -0.05  0.0000
   3   C3        1.1660    0.0560   -0.1540   c3 0 -0.05  0.0000
   4   C4       -0.2610   -0.1870    0.2650   c3 0 -0.06  0.0000
   5   H1        3.3727    0.4723   -1.2381   hc 0 0.023  0.0000
   6   H2        2.8277    0.7388   -2.9437   hc 0 0.023  0.0000
   7   H3        2.9208    2.1369   -1.7951   hc 0 0.023  0.0000
   8   H4        0.7070    1.7910   -1.3620   hc 0 0.026  0.0000
   9   H5        0.7090    0.2270   -2.2620   hc 0 0.026  0.0000
  10   H6        1.7010   -0.9250   -0.2580   hc 0 0.026  0.0000
  11   H7        1.6990    0.6390    0.6420   hc 0 0.026  0.0000
  12   H8       -0.2920   -0.7430    1.2320   hc 0 0.023  0.0000
  13   H9       -0.8030    0.7810    0.3960   hc 0 0.023  0.0000
  14  H10       -0.8010   -0.7880   -0.5060   hc 0 0.023  0.0000
@<TRIPOS>BOND
    1     1     2  1
    2     1     5  1
    3     1     6  1
    4     1     7  1
    5     2     3  1
    6     2     8  1
    7     2     9  1
    8     3     4  1
    9     3    10  1
   10     3    11  1
   11     4    12  1
   12     4    13  1
   13     4    14  1

@<TRIPOS>MOLECULE
MOL
   14   13    0    0    0




@<TRIPOS>ATOM
   1   C1        2.6690    1.0520   -1.8840   c3 0 -0.06  0.0000
   2   C2        1.2420    0.8100   -1.4650   c3 0 -0.05  0.0000
   3   C3        1.1660    0.0560   -0.1540   c3 0 -0.05  0.0000
   4   C4       -0.2610   -0.1870    0.2650   c3 0 -0.06  0.0000
   5   H1        3.3716    0.4583   -1.2498   hc 0 0.023  0.0000
   6   H2        2.8233    0.7556   -2.9492   hc 0 0.023  0.0000
   7   H3        2.9264    2.1340   -1.7779   hc 0 0.023  0.0000
   8   H4        0.7070    1.7910   -1.3620   hc 0 0.026  0.0000
   9   H5        0.7090    0.2270   -2.2620   hc 0 0.026  0.0000
  10   H6        1.7010   -0.9250   -0.2580   hc 0 0.026  0.0000
  11   H7        1.6990    0.6390    0.6420   hc 0 0.026  0.0000
  12   H8       -0.2920   -0.7430    1.2320   hc 0 0.023  0.0000
  13   H9       -0.8030    0.7810    0.3960   hc 0 0.023  0.0000
  14  H10       -0.8010   -0.7880   -0.5060   hc 0 0.023  0.0000
@<TRIPOS>BOND
    1     1     2  1
    2     1     5  1
    3     1     6  1
    4     1     7  1
    5     2     3  1
    6     2     8  1
    7     2     9  1
    8     3     4  1
    9     3    10  1
   10     3    11  1
   11     4    12  1
   12     4    13  1
   13     4    14  1

@<TRIPOS>MOLECULE
MOL
   14   13    0    0    0




@<TRIPOS>ATOM
   1   C1        2.6690    1.0520   -1.8840   c3 0 -0.06  0.0000
   2   C2        1.2420    0.8100   -1.4650   c3 0 -0.05  0.0000
   3   C3        1.1660    0.0560   -0.1540   c3 0 -0.05  0.0000
   4   C4       -0.2610   -0.1870    0.2650   c3 0 -0.06  0.0000
   5   H1        3.3705    0.4445   -1.2617   hc 0 0.023  0.0000
   6   H2        2.8189    0.7725   -2.9544   hc 0 0.023  0.0000
   7   H3        2.9319    2.1308   -1.7607   hc 0 0.023  0.0000
   8   H4        0.7070    1.7910   -1.3620   hc 0 0.026  0.0000
   9   H5        0.7090    0.2270   -2.2620   hc 0 0.026  0.0000
  10   H6        1.7010   -0.9250   -0.2580   hc 0 0.026  0.0000
  11   H7        1.6990    0.6390    0.6420   hc 0 0.026  0.0000
  12   H8       -0.2920   -0.7430    1.2320   hc 0 0.023  0.0000
  13   H9       -0.8030    0.7810    0.3960   hc 0 0.023  0.0000
  14  H10       -0.8010   -0.7880   -0.5060   hc 0 0.023  0.0000
@<TRIPOS>BOND
    1     1     2  1
    2     1     5  1
    3     1     6  1
    4     1     7  1
    5     2     3  1
    6     2     8  1
    7     2     9  1
    8     3     4  1
    9     3    10  1
   10     3    11  1
   11     4    12  1
   12     4    13  1
   13     4    14  1

@<TRIPOS>MOLECULE
MOL
   14   13    0    0    0




@<TRIPOS>ATOM
   1   C1        2.6690    1.0520   -1.8840   c3 0 -0.06  0.0000
   2   C2        1.2420    0.8100   -1.4650   c3 0 -0.05  0.0000
   3   C3        1.1660    0.0560   -0.1540   c3 0 -0.05  0.0000
   4   C4       -0.2610   -0.1870    0.2650   c3 0 -0.06  0.0000
   5   H1        3.3692    0.4309   -1.2738   hc 0 0.023  0.0000
   6   H2        2.8146    0.7896   -2.9593   hc 0 0.023  0.0000
   7   H3        2.9375    2.1274   -1.7437   hc 0 0.023  0.0000
   8   H4        0.7070    1.7910   -1.3620   hc 0 0.026  0.0000
   9   H5        0.7090    0.2270   -2.2620   hc 0 0.026  0.0000
  10   H6        1.7010   -0.9250   -0.2580   hc 0 0.026  0.0000
  11   H7        1.6990    0.6390    0.6420   hc 0 0.026  0.0000
  12   H8       -0.2920   -0.7430    1.2320   hc 0 0.023  0.0000
  13   H9       -0.8030    0.7810    0.3960   hc 0 0.023  0.0000
  14  H10       -0.8010   -0.7880   -0.5060   hc 0 0.023  0.0000
@<TRIPOS>BOND
    1     1     2  1
    2     1     5  1
    3     1     6  1
    4     1     7  1
    5     2     3  1
    6     2     8  1
    7     2     9  1
    8     3     4  1
    9     3    10  1
   10     3    11  1
   11     4    12  1
   12     4    13  1
   13     4    14  1

@<TRIPOS>MOLECULE
MOL
   14   13    0    0    0




@<TRIPOS>ATOM
   1   C1        2.6690    1.0520   -1.8840   c3 0 -0.06  0.0000
   2   C2        1.2420    0.8100   -1.4650   c3 0 -0.05  0.0000
   3   C3        1.1660    0.0560   -0.1540   c3 0 -0.05  0.0000
   4   C4       -0.2610   -0.1870    0.2650   c3 0 -0.06  0.0000
   5   H1        3.3679    0.4175   -1.2861   hc 0 0.023  0.0000
   6   H2        2.8103    0.8067   -2.9639   hc 0 0.023  0.0000
   7   H3        2.9431    2.1236   -1.7267   hc 0 0.023  0.0000
   8   H4        0.7070    1.7910   -1.3620   hc 0 0.026  0.0000
   9   H5        0.7090    0.2270   -2.2620   hc 0 0.026  0.0000
  10   H6        1.7010   -0.9250   -0.2580   hc 0 0.026  0.0000
  11   H7        1.6990    0.6390    0.6420   hc 0 0.026  0.0000
  12   H8       -0.2920   -0.7430    1.2320   hc 0 0.023  0.0000
  13   H9       -0.8030    0.7810    0.3960   hc 0 0.023  0.0000
  14  H10       -0.8010   -0.7880   -0.5060   hc 0 0.023  0.0000
@<TRIPOS>BOND
    1     1     2  1
    2     1     5  1
    3     1     6  1
    4     1     7  1
    5     2     3  1
    6     2     8  1
    7     2     9  1
    8     3     4  1
    9     3    10  1
   10     3    11  1
   11     4    12  1
   12     4    13  1
   13     4    14  1

@<TRIPOS>MOLECULE
MOL
   14   13    0    0    0




@<TRIPOS>ATOM
   1   C1        2.6690    1.0520   -1.8840   c3 0 -0.06  0.0000
   2   C2        1.2420    0.8100   -1.4650   c3 0 -0.05  0.0000
   3   C3        1.1660    0.0560   -0.1540   c3 0 -0.05  0.0000
   4   C4       -0.2610   -0.1870    0.2650   c3 0 -0.06  0.0000
   5   H1        3.3664    0.4043   -1.2987   hc 0 0.023  0.0000
   6   H2        2.8061    0.8239   -2.9682   hc 0 0.023  0.0000
   7   H3        2.9488    2.1195   -1.7098   hc 0 0.023  0.0000
   8   H4        0.7070    1.7910   -1.3620   hc 0 0.026  0.0000
   9   H5        0.7090    0.2270   -2.2620   hc 0 0.026  0.0000
  10   H6        1.7010   -0.9250   -0.2580   hc 0 0.026  0.0000
  11   H7        1.6990    0.6390    0.6420   hc 0 0.026  0.0000
  12   H8       -0.2920   -0.7430    1.2320   hc 0 0.023  0.0000
  13   H9       -0.8030    0.7810    0.3960   hc 0 0.023  0.0000
  14  H10       -0.8010   -0.7880   -0.5060   hc 0 0.023  0.0000
@<TRIPOS>BOND
    1     1     2  1
    2     1     5  1
    3     1     6  1
    4     1     7  1
    5     2     3  1
    6     2     8  1
    7     2     9  1
    8     3     4  1
    9     3    10  1
   10     3    11  1
   11     4    12  1
   12     4    13  1
   13     4    14  1

@<TRIPOS>MOLECULE
MOL
   14   13    0    0    0




@<TRIPOS>ATOM
   1   C1        2.6690    1.0520   -1.8840   c3 0 -0.06  0.0000
   2   C2        1.2420    0.8100   -1.4650   c3 0 -0.05  0.0000
   3   C3        1.1660    0.0560   -0.1540   c3 0 -0.05  0.0000
   4   C4       -0.2610   -0.1870    0.2650   c3 0 -0.06  0.0000
   5   H1        3.3649    0.3914   -1.3114   hc 0 0.023  0.0000
   6   H2        2.8020    0.8412   -2.9722   hc 0 0.023  0.0000
   7   H3        2.9545    2.1151   -1.6930   hc 0 0.023  0.0000
   8   H4        0.7070    1.7910   -1.3620   hc 0 0.026  0.0000
   9   H5        0.7090    0.2270   -2.2620   hc 0 0.026  0.0000
  10   H6        1.7010   -0.9250   -0.2580   hc 0 0.026  0.0000
  11   H7        1.6990    0.6390    0.6420   hc 0 0.026  0.0000
  12   H8       -0.2920   -0.7430    1.2320   hc 0 0.023  0.0000
  13   H9       -0.8030    0.7810    0.3960   hc 0 0.023  0.0000
  14  H10       -0.8010   -0.7880   -0.5060   hc 0 0.023  0.0000
@<TRIPOS>BOND
    1     1     2  1
    2     1     5  1
    3     1     6  1
    4     1     7  1
    5     2     3  1
    6     2     8  1
    7     2     9  1
    8     3     4  1
    9     3    10  1
   10     3    11  1
   11     4    12  1
   12     4    13  1
   13     4    14  1

@<TRIPOS>MOLECULE
MOL
   14   13    0    0    0




@<TRIPOS>ATOM
   1   C1        2.6690    1.0520   -1.8840   c3 0 -0.06  0.0000
   2   C2        1.2420    0.8100   -1.4650   c3 0 -0.05  0.0000
   3   C3        1.1660    0.0560   -0.1540   c3 0 -0.05  0.0000
   4   C4       -0.2610   -0.1870    0.2650   c3 0 -0.06  0.0000
   5   H1        3.3632    0.3787   -1.3244   hc 0 0.023  0.0000
   6   H2        2.7980    0.8586   -2.9759   hc 0 0.023  0.0000
   7   H3        2.9602    2.1104   -1.6762   hc 0 0.023  0.0000
   8   H4        0.7070    1.7910   -1.3620   hc 0 0.026  0.0000
   9   H5        0.7090    0.2270   -2.2620   hc 0 0.026  0.0000
  10   H6        1.7010   -0.9250   -0.2580   hc 0 0.026  0.0000
  11   H7        1.6990    0.6390    0.6420   hc 0 0.026  0.0000
  12   H8       -0.2920   -0.7430    1.2320   hc 0 0.023  0.0000
  13   H9       -0.8030    0.7810    0.3960   hc 0 0.023  0.0000
  14  H10       -0.8010   -0.7880   -0.5060   hc 0 0.023  0.0000
@<TRIPOS>BOND
    1     1     2  1
    2     1     5  1
    3     1     6  1
    4     1     7  1
    5     2     3  1
    6     2     8  1
    7     2     9  1
    8     3     4  1
    9     3    10  1
   10     3    11  1
   11     4    12  1
   12     4    13  1
   13     4    14  1

@<TRIPOS>MOLECULE
MOL
   14   13    0    0    0




@<TRIPOS>ATOM
   1   C1        2.6690    1.0520   -1.8840   c3 0 -0.06  0.0000
   2   C2        1.2420    0.8100   -1.4650   c3 0 -0.05  0.0000
   3   C3        1.1660    0.0560   -0.1540   c3 0 -0.05  0.0000
   4   C4       -0.2610   -0.1870    0.2650   c3 0 -0.06  0.0000
   5   H1        3.3615    0.3662   -1.3376   hc 0 0.023  0.0000
   6   H2        2.7940    0.8760   -2.9793   hc 0 0.023  0.0000
   7   H3        2.9659    2.1054   -1.6596   hc 0 0.023  0.0000
   8   H4        0.7070    1.7910   -1.3620   hc 0 0.026  0.0000
   9   H5        0.7090    0.2270   -2.2620   hc 0 0.026  0.0000
  10   H6        1.7010   -0.9250   -0.2580   hc 0 0.026  0.0000
  11   H7        1.6990    0.6390    0.6420   hc 0 0.026  0.0000
  12   H8       -0.2920   -0.7430    1.2320   hc 0 0.023  0.0000
  13   H9       -0.8030    0.7810    0.3960   hc 0 0.023  0.0000
  14  H10       -0.8010   -0.7880   -0.5060   hc 0 0.023  0.0000
@<TRIPOS>BOND
    1     1     2  1
    2     1     5  1
    3     1     6  1
    4     1     7  1
    5     2     3  1
    6     2     8  1
    7     2     9  1
    8     3     4  1
    9     3    10  1
   10     3    11  1
   11     4    12  1
   12     4    13  1
   13     4    14  1

@<TRIPOS>MOLECULE
MOL
   14   13    0    0    0




@<TRIPOS>ATOM
   1   C1        2.6690    1.0520   -1.8840   c3 0 -0.06  0.0000
   2   C2        1.2420    0.8100   -1.4650   c3 0 -0.05  0.0000
   3   C3        1.1660    0.0560   -0.1540   c3 0 -0.05  0.0000
   4   C4       -0.2610   -0.1870    0.2650   c3 0 -0.06  0.0000
   5   H1        3.3596    0.3539   -1.3510   hc 0 0.023  0.0000
   6   H2        2.7901    0.8935   -2.9824   hc 0 0.023  0.0000
   7   H3        2.9717    2.1001   -1.6431   hc 0 0.023  0.0000
   8   H4        0.7070    1.7910   -1.3620   hc 0 0.026  0.0000
   9   H5        0.7090    0.2270   -2.2620   hc 0 0.026  0.0000
  10   H6        1.7010   -0.9250   -0.2580   hc 0 0.026  0.0000
  11   H7        1.6990    0.6390    0.6420   hc 0 0.026  0.0000
  12   H8       -0.2920   -0.7430    1.2320   hc 0 0.023  0.0000
  13   H9       -0.8030    0.7810    0.3960   hc 0 0.023  0.0000
  14  H10       -0.8010   -0.7880   -0.5060   hc 0 0.023  0.0000
@<TRIPOS>BOND
    1     1     2  1
    2     1     5  1
    3     1     6  1
    4     1     7  1
    5     2     3  1
    6     2     8  1
    7     2     9  1
    8     3     4  1
    9     3    10  1
   10     3    11  1
   11     4    12  1
   12     4    13  1
   13     4    14  1

@<TRIPOS>MOLECULE
MOL
   14   13    0    0    0




@<TRIPOS>ATOM
   1   C1        2.6690    1.0520   -1.8840   c3 0 -0.06  0.0000
   2   C2        1.2420    0.8100   -1.4650   c3 0 -0.05  0.0000
   3   C3        1.1660    0.0560   -0.1540   c3 0 -0.05  0.0000
   4   C4       -0.2610   -0.1870    0.2650   c3 0 -0.06  0.0000
   5   H1        3.3577    0.3418   -1.3645   hc 0 0.023  0.0000
   6   H2        2.7863    0.9111   -2.9852   hc 0 0.023  0.0000
   7   H3        2.9774    2.0945   -1.6267   hc 0 0.023  0.0000
   8   H4        0.7070    1.7910   -1.3620   hc 0 0.026  0.0000
   9   H5        0.7090    0.2270   -2.2620   hc 0 0.026  0.0000
  10   H6        1.7010   -0.9250   -0.2580   hc 0 0.026  0.0000
  11   H7        1.6990    0.6390    0.6420   hc 0 0.026  0.0000
  12   H8       -0.2920   -0.7430    1.2320   hc 0 0.023  0.0000
  13   H9       -0.8030    0.7810    0.3960   hc 0 0.023  0.0000
  14  H10       -0.8010   -0.7880   -0.5060   hc 0 0.023  0.0000
@<TRIPOS>BOND
    1     1     2  1
    2     1     5  1
    3     1     6  1
    4     1     7  1
    5     2     3  1
    6     2     8  1
    7     2     9  1
    8     3     4  1
    9     3    10  1
   10     3    11  1
   11     4    12  1
   12     4    13  1
   13     4    14  1

@<TRIPOS>MOLECULE
MOL
   14   13    0    0    0




@<TRIPOS>ATOM
   1   C1        2.6690    1.0520   -1.8840   c3 0 -0.06  0.0000
   2   C2        1.2420    0.8100   -1.4650   c3 0 -0.05  0.0000
   3   C3        1.1660    0.0560   -0.1540   c3 0 -0.05  0.0000
   4   C4       -0.2610   -0.1870    0.2650   c3 0 -0.06  0.0000
   5   H1        3.3556    0.3300   -1.3783   hc 0 0.023  0.0000
   6   H2        2.7826    0.9288   -2.9877   hc 0 0.023  0.0000
   7   H3        2.9832    2.0886   -1.6104   hc 0 0.023  0.0000
   8   H4        0.7070    1.7910   -1.3620   hc 0 0.026  0.0000
   9   H5        0.7090    0.2270   -2.2620   hc 0 0.026  0.0000
  10   H6        1.7010   -0.9250   -0.2580   hc 0 0.026  0.0000
  11   H7        1.6990    0.6390    0.6420   hc 0 0.026  0.0000
  12   H8       -0.2920   -0.7430    1.2320   hc 0 0.023  0.0000
  13   H9       -0.8030    0.7810    0.3960   hc 0 0.023  0.0000
  14  H10       -0.8010   -0.7880   -0.5060   hc 0 0.023  0.0000
@<TRIPOS>BOND
    1     1     2  1
    2     1     5  1
    3     1     6  1
    4     1     7  1
    5     2     3  1
    6     2     8  1
    7     2     9  1
    8     3     4  1
    9     3    10  1
   10     3    11  1
   11     4    12  1
   12     4    13  1
   13     4    14  1

@<TRIPOS>MOLECULE
MOL
   14   13    0    0    0




@<TRIPOS>ATOM
   1   C1        2.6690    1.0520   -1.8840   c3 0 -0.06  0.0000
   2   C2        1.2420    0.8100   -1.4650   c3 0 -0.05  0.0000
   3   C3        1.1660    0.0560   -0.1540   c3 0 -0.05  0.0000
   4   C4       -0.2610   -0.1870    0.2650   c3 0 -0.06  0.0000
   5   H1        3.3535    0.3185   -1.3922   hc 0 0.023  0.0000
   6   H2        2.7789    0.9465   -2.9899   hc 0 0.023  0.0000
   7   H3        2.9890    2.0824   -1.5942   hc 0 0.023  0.0000
   8   H4        0.7070    1.7910   -1.3620   hc 0 0.026  0.0000
   9   H5        0.7090    0.2270   -2.2620   hc 0 0.026  0.0000
  10   H6        1.7010   -0.9250   -0.2580   hc 0 0.026  0.0000
  11   H7        1.6990    0.6390    0.6420   hc 0 0.026  0.0000
  12   H8       -0.2920   -0.7430    1.2320   hc 0 0.023  0.0000
  13   H9       -0.8030    0.7810    0.3960   hc 0 0.023  0.0000
  14  H10       -0.8010   -0.7880   -0.5060   hc 0 0.023  0.0000
@<TRIPOS>BOND
    1     1     2  1
    2     1     5  1
    3     1     6  1
    4     1     7  1
    5     2     3  1
    6     2     8  1
    7     2     9  1
    8     3     4  1
    9     3    10  1
   10     3    11  1
   11     4    12  1
   12     4    13  1
   13     4    14  1

@<TRIPOS>MOLECULE
MOL
   14   13    0    0    0




@<TRIPOS>ATOM
   1   C1        2.6690    1.0520   -1.8840   c3 0 -0.06  0.0000
   2   C2        1.2420    0.8100   -1.4650   c3 0 -0.05  0.0000
   3   C3        1.1660    0.0560   -0.1540   c3 0 -0.05  0.0000
   4   C4       -0.2610   -0.1870    0.2650   c3 0 -0.06  0.0000
   5   H1        3.3513    0.3071   -1.4064   hc 0 0.023  0.0000
   6   H2        2.7754    0.9643   -2.9918   hc 0 0.023  0.0000
   7   H3        2.9949    2.0759   -1.5781   hc 0 0.023  0.0000
   8   H4        0.7070    1.7910   -1.3620   hc 0 0.026  0.0000
   9   H5        0.7090    0.2270   -2.2620   hc 0 0.026  0.0000
  10   H6        1.7010   -0.9250   -0.2580   hc 0 0.026  0.0000
  11   H7        1.6990    0.6390    0.6420   hc 0 0.026  0.0000
  12   H8       -0.2920   -0.7430    1.2320   hc 0 0.023  0.0000
  13   H9       -0.8030    0.7810    0.3960   hc 0 0.023  0.0000
  14  H10       -0.8010   -0.7880   -0.5060   hc 0 0.023  0.0000
@<TRIPOS>BOND
    1     1     2  1
    2     1     5  1
    3     1     6  1
    4     1     7  1
    5     2     3  1
    6     2     8  1
    7     2     9  1
    8     3     4  1
    9     3    10  1
   10     3    11  1
   11     4    12  1
   12     4    13  1
   13     4    14  1

@<TRIPOS>MOLECULE
MOL
   14   13    0    0    0




@<TRIPOS>ATOM
   1   C1        2.6690    1.0520   -1.8840   c3 0 -0.06  0.0000
   2   C2        1.2420    0.8100   -1.4650   c3 0 -0.05  0.0000
   3   C3        1.1660    0.0560   -0.1540   c3 0 -0.05  0.0000
   4   C4       -0.2610   -0.1870    0.2650   c3 0 -0.06  0.0000
   5   H1        3.3489    0.2960   -1.4207   hc 0 0.023  0.0000
   6   H2        2.7719    0.9821   -2.9934   hc 0 0.023  0.0000
   7   H3        3.0007    2.0692   -1.5621   hc 0 0.023  0.0000
   8   H4        0.7070    1.7910   -1.3620   hc 0 0.026  0.0000
   9   H5        0.7090    0.2270   -2.2620   hc 0 0.026  0.0000
  10   H6        1.7010   -0.9250   -0.2580   hc 0 0.026  0.0000
  11   H7        1.6990    0.6390    0.6420   hc 0 0.026  0.0000
  12   H8       -0.2920   -0.7430    1.2320   hc 0 0.023  0.0000
  13   H9       -0.8030    0.7810    0.3960   hc 0 0.023  0.0000
  14  H10       -0.8010   -0.7880   -0.5060   hc 0 0.023  0.0000
@<TRIPOS>BOND
    1     1     2  1
    2     1     5  1
    3     1     6  1
    4     1     7  1
    5     2     3  1
    6     2     8  1
    7     2     9  1
    8     3     4  1
    9     3    10  1
   10     3    11  1
   11     4    12  1
   12     4    13  1
   13     4    14  1

@<TRIPOS>MOLECULE
MOL
   14   13    0    0    0




@<TRIPOS>ATOM
   1   C1        2.6690    1.0520   -1.8840   c3 0 -0.06  0.0000
   2   C2        1.2420    0.8100   -1.4650   c3 0 -0.05  0.0000
   3   C3        1.1660    0.0560   -0.1540   c3 0 -0.05  0.0000
   4   C4       -0.2610   -0.1870    0.2650   c3 0 -0.06  0.0000
   5   H1        3.3465    0.2852   -1.4352   hc 0 0.023  0.0000
   6   H2        2.7685    1.0000   -2.9947   hc 0 0.023  0.0000
   7   H3        3.0065    2.0621   -1.5463   hc 0 0.023  0.0000
   8   H4        0.7070    1.7910   -1.3620   hc 0 0.026  0.0000
   9   H5        0.7090    0.2270   -2.2620   hc 0 0.026  0.0000
  10   H6        1.7010   -0.9250   -0.2580   hc 0 0.026  0.0000
  11   H7        1.6990    0.6390    0.6420   hc 0 0.026  0.0000
  12   H8       -0.2920   -0.7430    1.2320   hc 0 0.023  0.0000
  13   H9       -0.8030    0.7810    0.3960   hc 0 0.023  0.0000
  14  H10       -0.8010   -0.7880   -0.5060   hc 0 0.023  0.0000
@<TRIPOS>BOND
    1     1     2  1
    2     1     5  1
    3     1     6  1
    4     1     7  1
    5     2     3  1
    6     2     8  1
    7     2     9  1
    8     3     4  1
    9     3    10  1
   10     3    11  1
   11     4    12  1
   12     4    13  1
   13     4    14  1

@<TRIPOS>MOLECULE
MOL
   14   13    0    0    0




@<TRIPOS>ATOM
   1   C1        2.6690    1.0520   -1.8840   c3 0 -0.06  0.0000
   2   C2        1.2420    0.8100   -1.4650   c3 0 -0.05  0.0000
   3   C3        1.1660    0.0560   -0.1540   c3 0 -0.05  0.0000
   4   C4       -0.2610   -0.1870    0.2650   c3 0 -0.06  0.0000
   5   H1        3.3440    0.2746   -1.4498   hc 0 0.023  0.0000
   6   H2        2.7651    1.0179   -2.9957   hc 0 0.023  0.0000
   7   H3        3.0124    2.0547   -1.5306   hc 0 0.023  0.0000
   8   H4        0.7070    1.7910   -1.3620   hc 0 0.026  0.0000
   9   H5        0.7090    0.2270   -2.2620   hc 0 0.026  0.0000
  10   H6        1.7010   -0.9250   -0.2580   hc 0 0.026  0.0000
  11   H7        1.6990    0.6390    0.6420   hc 0 0.026  0.0000
  12   H8       -0.2920   -0.7430    1.2320   hc 0 0.023  0.0000
  13   H9       -0.8030    0.7810    0.3960   hc 0 0.023  0.0000
  14  H10       -0.8010   -0.7880   -0.5060   hc 0 0.023  0.0000
@<TRIPOS>BOND
    1     1     2  1
    2     1     5  1
    3     1     6  1
    4     1     7  1
    5     2     3  1
    6     2     8  1
    7     2     9  1
    8     3     4  1
    9     3    10  1
   10     3    11  1
   11     4    12  1
   12     4    13  1
   13     4    14  1

@<TRIPOS>MOLECULE
MOL
   14   13    0    0    0




@<TRIPOS>ATOM
   1   C1        2.6690    1.0520   -1.8840   c3 0 -0.06  0.0000
   2   C2        1.2420    0.8100   -1.4650   c3 0 -0.05  0.0000
   3   C3        1.1660    0.0560   -0.1540   c3 0 -0.05  0.0000
   4   C4       -0.2610   -0.1870    0.2650   c3 0 -0.06  0.0000
   5   H1        3.3414    0.2643   -1.4647   hc 0 0.023  0.0000
   6   H2        2.7619    1.0358   -2.9964   hc 0 0.023  0.0000
   7   H3        3.0183    2.0471   -1.5151   hc 0 0.023  0.0000
   8   H4        0.7070    1.7910   -1.3620   hc 0 0.026  0.0000
   9   H5        0.7090    0.2270   -2.2620   hc 0 0.026  0.0000
  10   H6        1.7010   -0.9250   -0.2580   hc 0 0.026  0.0000
  11   H7        1.6990    0.6390    0.6420   hc 0 0.026  0.0000
  12   H8       -0.2920   -0.7430    1.2320   hc 0 0.023  0.0000
  13   H9       -0.8030    0.7810    0.3960   hc 0 0.023  0.0000
  14  H10       -0.8010   -0.7880   -0.5060   hc 0 0.023  0.0000
@<TRIPOS>BOND
    1     1     2  1
    2     1     5  1
    3     1     6  1
    4     1     7  1
    5     2     3  1
    6     2     8  1
    7     2     9  1
    8     3     4  1
    9     3    10  1
   10     3    11  1
   11     4    12  1
   12     4    13  1
   13     4    14  1

@<TRIPOS>MOLECULE
MOL
   14   13    0    0    0




@<TRIPOS>ATOM
   1   C1        2.6690    1.0520   -1.8840   c3 0 -0.06  0.0000
   2   C2        1.2420    0.8100   -1.4650   c3 0 -0.05  0.0000
   3   C3        1.1660    0.0560   -0.1540   c3 0 -0.05  0.0000
   4   C4       -0.2610   -0.1870    0.2650   c3 0 -0.06  0.0000
   5   H1        3.3387    0.2542   -1.4797   hc 0 0.023  0.0000
   6   H2        2.7587    1.0537   -2.9968   hc 0 0.023  0.0000
   7   H3        3.0241    2.0391   -1.4997   hc 0 0.023  0.0000
   8   H4        0.7070    1.7910   -1.3620   hc 0 0.026  0.0000
   9   H5        0.7090    0.2270   -2.2620   hc 0 0.026  0.0000
  10   H6        1.7010   -0.9250   -0.2580   hc 0 0.026  0.0000
  11   H7        1.6990    0.6390    0.6420   hc 0 0.026  0.0000
  12   H8       -0.2920   -0.7430    1.2320   hc 0 0.023  0.0000
  13   H9       -0.8030    0.7810    0.3960   hc 0 0.023  0.0000
  14  H10       -0.8010   -0.7880   -0.5060   hc 0 0.023  0.0000
@<TRIPOS>BOND
    1     1     2  1
    2     1     5  1
    3     1     6  1
    4     1     7  1
    5     2     3  1
    6     2     8  1
    7     2     9  1
    8     3     4  1
    9     3    10  1
   10     3    11  1
   11     4    12  1
   12     4    13  1
   13     4    14  1

@<TRIPOS>MOLECULE
MOL
   14   13    0    0    0




@<TRIPOS>ATOM
   1   C1        2.6690    1.0520   -1.8840   c3 0 -0.06  0.0000
   2   C2        1.2420    0.8100   -1.4650   c3 0 -0.05  0.0000
   3   C3        1.1660    0.0560   -0.1540   c3 0 -0.05  0.0000
   4   C4       -0.2610   -0.1870    0.2650   c3 0 -0.06  0.0000
   5   H1        3.3359    0.2444   -1.4948   hc 0 0.023  0.0000
   6   H2        2.7557    1.0717   -2.9968   hc 0 0.023  0.0000
   7   H3        3.0300    2.0309   -1.4845   hc 0 0.023  0.0000
   8   H4        0.7070    1.7910   -1.3620   hc 0 0.026  0.0000
   9   H5        0.7090    0.2270   -2.2620   hc 0 0.026  0.0000
  10   H6        1.7010   -0.9250   -0.2580   hc 0 0.026  0.0000
  11   H7        1.6990    0.6390    0.6420   hc 0 0.026  0.0000
  12   H8       -0.2920   -0.7430    1.2320   hc 0 0.023  0.0000
  13   H9       -0.8030    0.7810    0.3960   hc 0 0.023  0.0000
  14  H10       -0.8010   -0.7880   -0.5060   hc 0 0.023  0.0000
@<TRIPOS>BOND
    1     1     2  1
    2     1     5  1
    3     1     6  1
    4     1     7  1
    5     2     3  1
    6     2     8  1
    7     2     9  1
    8     3     4  1
    9     3    10  1
   10     3    11  1
   11     4    12  1
   12     4    13  1
   13     4    14  1

@<TRIPOS>MOLECULE
MOL
   14   13    0    0    0




@<TRIPOS>ATOM
   1   C1        2.6690    1.0520   -1.8840   c3 0 -0.06  0.0000
   2   C2        1.2420    0.8100   -1.4650   c3 0 -0.05  0.0000
   3   C3        1.1660    0.0560   -0.1540   c3 0 -0.05  0.0000
   4   C4       -0.2610   -0.1870    0.2650   c3 0 -0.06  0.0000
   5   H1        3.3331    0.2349   -1.5101   hc 0 0.023  0.0000
   6   H2        2.7527    1.0897   -2.9966   hc 0 0.023  0.0000
   7   H3        3.0359    2.0224   -1.4694   hc 0 0.023  0.0000
   8   H4        0.7070    1.7910   -1.3620   hc 0 0.026  0.0000
   9   H5        0.7090    0.2270   -2.2620   hc 0 0.026  0.0000
  10   H6        1.7010   -0.9250   -0.2580   hc 0 0.026  0.0000
  11   H7        1.6990    0.6390    0.6420   hc 0 0.026  0.0000
  12   H8       -0.2920   -0.7430    1.2320   hc 0 0.023  0.0000
  13   H9       -0.8030    0.7810    0.3960   hc 0 0.023  0.0000
  14  H10       -0.8010   -0.7880   -0.5060   hc 0 0.023  0.0000
@<TRIPOS>BOND
    1     1     2  1
    2     1     5  1
    3     1     6  1
    4     1     7  1
    5     2     3  1
    6     2     8  1
    7     2     9  1
    8     3     4  1
    9     3    10  1
   10     3    11  1
   11     4    12  1
   12     4    13  1
   13     4    14  1

@<TRIPOS>MOLECULE
MOL
   14   13    0    0    0




@<TRIPOS>ATOM
   1   C1        2.6690    1.0520   -1.8840   c3 0 -0.06  0.0000
   2   C2        1.2420    0.8100   -1.4650   c3 0 -0.05  0.0000
   3   C3        1.1660    0.0560   -0.1540   c3 0 -0.05  0.0000
   4   C4       -0.2610   -0.1870    0.2650   c3 0 -0.06  0.0000
   5   H1        3.3301    0.2256   -1.5255   hc 0 0.023  0.0000
   6   H2        2.7498    1.1077   -2.9960   hc 0 0.023  0.0000
   7   H3        3.0417    2.0137   -1.4544   hc 0 0.023  0.0000
   8   H4        0.7070    1.7910   -1.3620   hc 0 0.026  0.0000
   9   H5        0.7090    0.2270   -2.2620   hc 0 0.026  0.0000
  10   H6        1.7010   -0.9250   -0.2580   hc 0 0.026  0.0000
  11   H7        1.6990    0.6390    0.6420   hc 0 0.026  0.0000
  12   H8       -0.2920   -0.7430    1.2320   hc 0 0.023  0.0000
  13   H9       -0.8030    0.7810    0.3960   hc 0 0.023  0.0000
  14  H10       -0.8010   -0.7880   -0.5060   hc 0 0.023  0.0000
@<TRIPOS>BOND
    1     1     2  1
    2     1     5  1
    3     1     6  1
    4     1     7  1
    5     2     3  1
    6     2     8  1
    7     2     9  1
    8     3     4  1
    9     3    10  1
   10     3    11  1
   11     4    12  1
   12     4    13  1
   13     4    14  1

@<TRIPOS>MOLECULE
MOL
   14   13    0    0    0




@<TRIPOS>ATOM
   1   C1        2.6690    1.0520   -1.8840   c3 0 -0.06  0.0000
   2   C2        1.2420    0.8100   -1.4650   c3 0 -0.05  0.0000
   3   C3        1.1660    0.0560   -0.1540   c3 0 -0.05  0.0000
   4   C4       -0.2610   -0.1870    0.2650   c3 0 -0.06  0.0000
   5   H1        3.3271    0.2166   -1.5411   hc 0 0.023  0.0000
   6   H2        2.7470    1.1257   -2.9952   hc 0 0.023  0.0000
   7   H3        3.0476    2.0046   -1.4397   hc 0 0.023  0.0000
   8   H4        0.7070    1.7910   -1.3620   hc 0 0.026  0.0000
   9   H5        0.7090    0.2270   -2.2620   hc 0 0.026  0.0000
  10   H6        1.7010   -0.9250   -0.2580   hc 0 0.026  0.0000
  11   H7        1.6990    0.6390    0.6420   hc 0 0.026  0.0000
  12   H8       -0.2920   -0.7430    1.2320   hc 0 0.023  0.0000
  13   H9       -0.8030    0.7810    0.3960   hc 0 0.023  0.0000
  14  H10       -0.8010   -0.7880   -0.5060   hc 0 0.023  0.0000
@<TRIPOS>BOND
    1     1     2  1
    2     1     5  1
    3     1     6  1
    4     1     7  1
    5     2     3  1
    6     2     8  1
    7     2     9  1
    8     3     4  1
    9     3    10  1
   10     3    11  1
   11     4    12  1
   12     4    13  1
   13     4    14  1

@<TRIPOS>MOLECULE
MOL
   14   13    0    0    0




@<TRIPOS>ATOM
   1   C1        2.6690    1.0520   -1.8840   c3 0 -0.06  0.0000
   2   C2        1.2420    0.8100   -1.4650   c3 0 -0.05  0.0000
   3   C3        1.1660    0.0560   -0.1540   c3 0 -0.05  0.0000
   4   C4       -0.2610   -0.1870    0.2650   c3 0 -0.06  0.0000
   5   H1        3.3239    0.2079   -1.5568   hc 0 0.023  0.0000
   6   H2        2.7443    1.1436   -2.9940   hc 0 0.023  0.0000
   7   H3        3.0535    1.9953   -1.4251   hc 0 0.023  0.0000
   8   H4        0.7070    1.7910   -1.3620   hc 0 0.026  0.0000
   9   H5        0.7090    0.2270   -2.2620   hc 0 0.026  0.0000
  10   H6        1.7010   -0.9250   -0.2580   hc 0 0.026  0.0000
  11   H7        1.6990    0.6390    0.6420   hc 0 0.026  0.0000
  12   H8       -0.2920   -0.7430    1.2320   hc 0 0.023  0.0000
  13   H9       -0.8030    0.7810    0.3960   hc 0 0.023  0.0000
  14  H10       -0.8010   -0.7880   -0.5060   hc 0 0.023  0.0000
@<TRIPOS>BOND
    1     1     2  1
    2     1     5  1
    3     1     6  1
    4     1     7  1
    5     2     3  1
    6     2     8  1
    7     2     9  1
    8     3     4  1
    9     3    10  1
   10     3    11  1
   11     4    12  1
   12     4    13  1
   13     4    14  1

@<TRIPOS>MOLECULE
MOL
   14   13    0    0    0




@<TRIPOS>ATOM
   1   C1        2.6690    1.0520   -1.8840   c3 0 -0.06  0.0000
   2   C2        1.2420    0.8100   -1.4650   c3 0 -0.05  0.0000
   3   C3        1.1660    0.0560   -0.1540   c3 0 -0.05  0.0000
   4   C4       -0.2610   -0.1870    0.2650   c3 0 -0.06  0.0000
   5   H1        3.3207    0.1995   -1.5727   hc 0 0.023  0.0000
   6   H2        2.7417    1.1616   -2.9926   hc 0 0.023  0.0000
   7   H3        3.0593    1.9857   -1.4106   hc 0 0.023  0.0000
   8   H4        0.7070    1.7910   -1.3620   hc 0 0.026  0.0000
   9   H5        0.7090    0.2270   -2.2620   hc 0 0.026  0.0000
  10   H6        1.7010   -0.9250   -0.2580   hc 0 0.026  0.0000
  11   H7        1.6990    0.6390    0.6420   hc 0 0.026  0.0000
  12   H8       -0.2920   -0.7430    1.2320   hc 0 0.023  0.0000
  13   H9       -0.8030    0.7810    0.3960   hc 0 0.023  0.0000
  14  H10       -0.8010   -0.7880   -0.5060   hc 0 0.023  0.0000
@<TRIPOS>BOND
    1     1     2  1
    2     1     5  1
    3     1     6  1
    4     1     7  1
    5     2     3  1
    6     2     8  1
    7     2     9  1
    8     3     4  1
    9     3    10  1
   10     3    11  1
   11     4    12  1
   12     4    13  1
   13     4    14  1

@<TRIPOS>MOLECULE
MOL
   14   13    0    0    0




@<TRIPOS>ATOM
   1   C1        2.6690    1.0520   -1.8840   c3 0 -0.06  0.0000
   2   C2        1.2420    0.8100   -1.4650   c3 0 -0.05  0.0000
   3   C3        1.1660    0.0560   -0.1540   c3 0 -0.05  0.0000
   4   C4       -0.2610   -0.1870    0.2650   c3 0 -0.06  0.0000
   5   H1        3.3174    0.1913   -1.5887   hc 0 0.023  0.0000
   6   H2        2.7391    1.1796   -2.9908   hc 0 0.023  0.0000
   7   H3        3.0652    1.9759   -1.3964   hc 0 0.023  0.0000
   8   H4        0.7070    1.7910   -1.3620   hc 0 0.026  0.0000
   9   H5        0.7090    0.2270   -2.2620   hc 0 0.026  0.0000
  10   H6        1.7010   -0.9250   -0.2580   hc 0 0.026  0.0000
  11   H7        1.6990    0.6390    0.6420   hc 0 0.026  0.0000
  12   H8       -0.2920   -0.7430    1.2320   hc 0 0.023  0.0000
  13   H9       -0.8030    0.7810    0.3960   hc 0 0.023  0.0000
  14  H10       -0.8010   -0.7880   -0.5060   hc 0 0.023  0.0000
@<TRIPOS>BOND
    1     1     2  1
    2     1     5  1
    3     1     6  1
    4     1     7  1
    5     2     3  1
    6     2     8  1
    7     2     9  1
    8     3     4  1
    9     3    10  1
   10     3    11  1
   11     4    12  1
   12     4    13  1
   13     4    14  1

@<TRIPOS>MOLECULE
MOL
   14   13    0    0    0




@<TRIPOS>ATOM
   1   C1        2.6690    1.0520   -1.8840   c3 0 -0.06  0.0000
   2   C2        1.2420    0.8100   -1.4650   c3 0 -0.05  0.0000
   3   C3        1.1660    0.0560   -0.1540   c3 0 -0.05  0.0000
   4   C4       -0.2610   -0.1870    0.2650   c3 0 -0.06  0.0000
   5   H1        3.3140    0.1834   -1.6048   hc 0 0.023  0.0000
   6   H2        2.7367    1.1975   -2.9888   hc 0 0.023  0.0000
   7   H3        3.0710    1.9657   -1.3823   hc 0 0.023  0.0000
   8   H4        0.7070    1.7910   -1.3620   hc 0 0.026  0.0000
   9   H5        0.7090    0.2270   -2.2620   hc 0 0.026  0.0000
  10   H6        1.7010   -0.9250   -0.2580   hc 0 0.026  0.0000
  11   H7        1.6990    0.6390    0.6420   hc 0 0.026  0.0000
  12   H8       -0.2920   -0.7430    1.2320   hc 0 0.023  0.0000
  13   H9       -0.8030    0.7810    0.3960   hc 0 0.023  0.0000
  14  H10       -0.8010   -0.7880   -0.5060   hc 0 0.023  0.0000
@<TRIPOS>BOND
    1     1     2  1
    2     1     5  1
    3     1     6  1
    4     1     7  1
    5     2     3  1
    6     2     8  1
    7     2     9  1
    8     3     4  1
    9     3    10  1
   10     3    11  1
   11     4    12  1
   12     4    13  1
   13     4    14  1

@<TRIPOS>MOLECULE
MOL
   14   13    0    0    0




@<TRIPOS>ATOM
   1   C1        2.6690    1.0520   -1.8840   c3 0 -0.06  0.0000
   2   C2        1.2420    0.8100   -1.4650   c3 0 -0.05  0.0000
   3   C3        1.1660    0.0560   -0.1540   c3 0 -0.05  0.0000
   4   C4       -0.2610   -0.1870    0.2650   c3 0 -0.06  0.0000
   5   H1        3.3105    0.1758   -1.6210   hc 0 0.023  0.0000
   6   H2        2.7344    1.2154   -2.9864   hc 0 0.023  0.0000
   7   H3        3.0769    1.9554   -1.3684   hc 0 0.023  0.0000
   8   H4        0.7070    1.7910   -1.3620   hc 0 0.026  0.0000
   9   H5        0.7090    0.2270   -2.2620   hc 0 0.026  0.0000
  10   H6        1.7010   -0.9250   -0.2580   hc 0 0.026  0.0000
  11   H7        1.6990    0.6390    0.6420   hc 0 0.026  0.0000
  12   H8       -0.2920   -0.7430    1.2320   hc 0 0.023  0.0000
  13   H9       -0.8030    0.7810    0.3960   hc 0 0.023  0.0000
  14  H10       -0.8010   -0.7880   -0.5060   hc 0 0.023  0.0000
@<TRIPOS>BOND
    1     1     2  1
    2     1     5  1
    3     1     6  1
    4     1     7  1
    5     2     3  1
    6     2     8  1
    7     2     9  1
    8     3     4  1
    9     3    10  1
   10     3    11  1
   11     4    12  1
   12     4    13  1
   13     4    14  1

@<TRIPOS>MOLECULE
MOL
   14   13    0    0    0




@<TRIPOS>ATOM
   1   C1        2.6690    1.0520   -1.8840   c3 0 -0.06  0.0000
   2   C2        1.2420    0.8100   -1.4650   c3 0 -0.05  0.0000
   3   C3        1.1660    0.0560   -0.1540   c3 0 -0.05  0.0000
   4   C4       -0.2610   -0.1870    0.2650   c3 0 -0.06  0.0000
   5   H1        3.3070    0.1685   -1.6373   hc 0 0.023  0.0000
   6   H2        2.7321    1.2333   -2.9837   hc 0 0.023  0.0000
   7   H3        3.0827    1.9447   -1.3547   hc 0 0.023  0.0000
   8   H4        0.7070    1.7910   -1.3620   hc 0 0.026  0.0000
   9   H5        0.7090    0.2270   -2.2620   hc 0 0.026  0.0000
  10   H6        1.7010   -0.9250   -0.2580   hc 0 0.026  0.0000
  11   H7        1.6990    0.6390    0.6420   hc 0 0.026  0.0000
  12   H8       -0.2920   -0.7430    1.2320   hc 0 0.023  0.0000
  13   H9       -0.8030    0.7810    0.3960   hc 0 0.023  0.0000
  14  H10       -0.8010   -0.7880   -0.5060   hc 0 0.023  0.0000
@<TRIPOS>BOND
    1     1     2  1
    2     1     5  1
    3     1     6  1
    4     1     7  1
    5     2     3  1
    6     2     8  1
    7     2     9  1
    8     3     4  1
    9     3    10  1
   10     3    11  1
   11     4    12  1
   12     4    13  1
   13     4    14  1

@<TRIPOS>MOLECULE
MOL
   14   13    0    0    0




@<TRIPOS>ATOM
   1   C1        2.6690    1.0520   -1.8840   c3 0 -0.06  0.0000
   2   C2        1.2420    0.8100   -1.4650   c3 0 -0.05  0.0000
   3   C3        1.1660    0.0560   -0.1540   c3 0 -0.05  0.0000
   4   C4       -0.2610   -0.1870    0.2650   c3 0 -0.06  0.0000
   5   H1        3.3033    0.1615   -1.6538   hc 0 0.023  0.0000
   6   H2        2.7300    1.2512   -2.9808   hc 0 0.023  0.0000
   7   H3        3.0885    1.9339   -1.3412   hc 0 0.023  0.0000
   8   H4        0.7070    1.7910   -1.3620   hc 0 0.026  0.0000
   9   H5        0.7090    0.2270   -2.2620   hc 0 0.026  0.0000
  10   H6        1.7010   -0.9250   -0.2580   hc 0 0.026  0.0000
  11   H7        1.6990    0.6390    0.6420   hc 0 0.026  0.0000
  12   H8       -0.2920   -0.7430    1.2320   hc 0 0.023  0.0000
  13   H9       -0.8030    0.7810    0.3960   hc 0 0.023  0.0000
  14  H10       -0.8010   -0.7880   -0.5060   hc 0 0.023  0.0000
@<TRIPOS>BOND
    1     1     2  1
    2     1     5  1
    3     1     6  1
    4     1     7  1
    5     2     3  1
    6     2     8  1
    7     2     9  1
    8     3     4  1
    9     3    10  1
   10     3    11  1
   11     4    12  1
   12     4    13  1
   13     4    14  1

@<TRIPOS>MOLECULE
MOL
   14   13    0    0    0




@<TRIPOS>ATOM
   1   C1        2.6690    1.0520   -1.8840   c3 0 -0.06  0.0000
   2   C2        1.2420    0.8100   -1.4650   c3 0 -0.05  0.0000
   3   C3        1.1660    0.0560   -0.1540   c3 0 -0.05  0.0000
   4   C4       -0.2610   -0.1870    0.2650   c3 0 -0.06  0.0000
   5   H1        3.2996    0.1547   -1.6703   hc 0 0.023  0.0000
   6   H2        2.7279    1.2690   -2.9775   hc 0 0.023  0.0000
   7   H3        3.0943    1.9227   -1.3279   hc 0 0.023  0.0000
   8   H4        0.7070    1.7910   -1.3620   hc 0 0.026  0.0000
   9   H5        0.7090    0.2270   -2.2620   hc 0 0.026  0.0000
  10   H6        1.7010   -0.9250   -0.2580   hc 0 0.026  0.0000
  11   H7        1.6990    0.6390    0.6420   hc 0 0.026  0.0000
  12   H8       -0.2920   -0.7430    1.2320   hc 0 0.023  0.0000
  13   H9       -0.8030    0.7810    0.3960   hc 0 0.023  0.0000
  14  H10       -0.8010   -0.7880   -0.5060   hc 0 0.023  0.0000
@<TRIPOS>BOND
    1     1     2  1
    2     1     5  1
    3     1     6  1
    4     1     7  1
    5     2     3  1
    6     2     8  1
    7     2     9  1
    8     3     4  1
    9     3    10  1
   10     3    11  1
   11     4    12  1
   12     4    13  1
   13     4    14  1

@<TRIPOS>MOLECULE
MOL
   14   13    0    0    0




@<TRIPOS>ATOM
   1   C1        2.6690    1.0520   -1.8840   c3 0 -0.06  0.0000
   2   C2        1.2420    0.8100   -1.4650   c3 0 -0.05  0.0000
   3   C3        1.1660    0.0560   -0.1540   c3 0 -0.05  0.0000
   4   C4       -0.2610   -0.1870    0.2650   c3 0 -0.06  0.0000
   5   H1        3.2958    0.1483   -1.6870   hc 0 0.023  0.0000
   6   H2        2.7259    1.2868   -2.9739   hc 0 0.023  0.0000
   7   H3        3.1001    1.9114   -1.3148   hc 0 0.023  0.0000
   8   H4        0.7070    1.7910   -1.3620   hc 0 0.026  0.0000
   9   H5        0.7090    0.2270   -2.2620   hc 0 0.026  0.0000
  10   H6        1.7010   -0.9250   -0.2580   hc 0 0.026  0.0000
  11   H7        1.6990    0.6390    0.6420   hc 0 0.026  0.0000
  12   H8       -0.2920   -0.7430    1.2320   hc 0 0.023  0.0000
  13   H9       -0.8030    0.7810    0.3960   hc 0 0.023  0.0000
  14  H10       -0.8010   -0.7880   -0.5060   hc 0 0.023  0.0000
@<TRIPOS>BOND
    1     1     2  1
    2     1     5  1
    3     1     6  1
    4     1     7  1
    5     2     3  1
    6     2     8  1
    7     2     9  1
    8     3     4  1
    9     3    10  1
   10     3    11  1
   11     4    12  1
   12     4    13  1
   13     4    14  1

@<TRIPOS>MOLECULE
MOL
   14   13    0    0    0




@<TRIPOS>ATOM
   1   C1        2.6690    1.0520   -1.8840   c3 0 -0.06  0.0000
   2   C2        1.2420    0.8100   -1.4650   c3 0 -0.05  0.0000
   3   C3        1.1660    0.0560   -0.1540   c3 0 -0.05  0.0000
   4   C4       -0.2610   -0.1870    0.2650   c3 0 -0.06  0.0000
   5   H1        3.2919    0.1421   -1.7037   hc 0 0.023  0.0000
   6   H2        2.7241    1.3045   -2.9700   hc 0 0.023  0.0000
   7   H3        3.1058    1.8997   -1.3020   hc 0 0.023  0.0000
   8   H4        0.7070    1.7910   -1.3620   hc 0 0.026  0.0000
   9   H5        0.7090    0.2270   -2.2620   hc 0 0.026  0.0000
  10   H6        1.7010   -0.9250   -0.2580   hc 0 0.026  0.0000
  11   H7        1.6990    0.6390    0.6420   hc 0 0.026  0.0000
  12   H8       -0.2920   -0.7430    1.2320   hc 0 0.023  0.0000
  13   H9       -0.8030    0.7810    0.3960   hc 0 0.023  0.0000
  14  H10       -0.8010   -0.7880   -0.5060   hc 0 0.023  0.0000
@<TRIPOS>BOND
    1     1     2  1
    2     1     5  1
    3     1     6  1
    4     1     7  1
    5     2     3  1
    6     2     8  1
    7     2     9  1
    8     3     4  1
    9     3    10  1
   10     3    11  1
   11     4    12  1
   12     4    13  1
   13     4    14  1

@<TRIPOS>MOLECULE
MOL
   14   13    0    0    0




@<TRIPOS>ATOM
   1   C1        2.6690    1.0520   -1.8840   c3 0 -0.06  0.0000
   2   C2        1.2420    0.8100   -1.4650   c3 0 -0.05  0.0000
   3   C3        1.1660    0.0560   -0.1540   c3 0 -0.05  0.0000
   4   C4       -0.2610   -0.1870    0.2650   c3 0 -0.06  0.0000
   5   H1        3.2880    0.1363   -1.7205   hc 0 0.023  0.0000
   6   H2        2.7223    1.3221   -2.9659   hc 0 0.023  0.0000
   7   H3        3.1116    1.8879   -1.2893   hc 0 0.023  0.0000
   8   H4        0.7070    1.7910   -1.3620   hc 0 0.026  0.0000
   9   H5        0.7090    0.2270   -2.2620   hc 0 0.026  0.0000
  10   H6        1.7010   -0.9250   -0.2580   hc 0 0.026  0.0000
  11   H7        1.6990    0.6390    0.6420   hc 0 0.026  0.0000
  12   H8       -0.2920   -0.7430    1.2320   hc 0 0.023  0.0000
  13   H9       -0.8030    0.7810    0.3960   hc 0 0.023  0.0000
  14  H10       -0.8010   -0.7880   -0.5060   hc 0 0.023  0.0000
@<TRIPOS>BOND
    1     1     2  1
    2     1     5  1
    3     1     6  1
    4     1     7  1
    5     2     3  1
    6     2     8  1
    7     2     9  1
    8     3     4  1
    9     3    10  1
   10     3    11  1
   11     4    12  1
   12     4    13  1
   13     4    14  1

@<TRIPOS>MOLECULE
MOL
   14   13    0    0    0




@<TRIPOS>ATOM
   1   C1        2.6690    1.0520   -1.8840   c3 0 -0.06  0.0000
   2   C2        1.2420    0.8100   -1.4650   c3 0 -0.05  0.0000
   3   C3        1.1660    0.0560   -0.1540   c3 0 -0.05  0.0000
   4   C4       -0.2610   -0.1870    0.2650   c3 0 -0.06  0.0000
   5   H1        3.2840    0.1307   -1.7374   hc 0 0.023  0.0000
   6   H2        2.7206    1.3397   -2.9614   hc 0 0.023  0.0000
   7   H3        3.1173    1.8758   -1.2768   hc 0 0.023  0.0000
   8   H4        0.7070    1.7910   -1.3620   hc 0 0.026  0.0000
   9   H5        0.7090    0.2270   -2.2620   hc 0 0.026  0.0000
  10   H6        1.7010   -0.9250   -0.2580   hc 0 0.026  0.0000
  11   H7        1.6990    0.6390    0.6420   hc 0 0.026  0.0000
  12   H8       -0.2920   -0.7430    1.2320   hc 0 0.023  0.0000
  13   H9       -0.8030    0.7810    0.3960   hc 0 0.023  0.0000
  14  H10       -0.8010   -0.7880   -0.5060   hc 0 0.023  0.0000
@<TRIPOS>BOND
    1     1     2  1
    2     1     5  1
    3     1     6  1
    4     1     7  1
    5     2     3  1
    6     2     8  1
    7     2     9  1
    8     3     4  1
    9     3    10  1
   10     3    11  1
   11     4    12  1
   12     4    13  1
   13     4    14  1

@<TRIPOS>MOLECULE
MOL
   14   13    0    0    0




@<TRIPOS>ATOM
   1   C1        2.6690    1.0520   -1.8840   c3 0 -0.06  0.0000
   2   C2        1.2420    0.8100   -1.4650   c3 0 -0.05  0.0000
   3   C3        1.1660    0.0560   -0.1540   c3 0 -0.05  0.0000
   4   C4       -0.2610   -0.1870    0.2650   c3 0 -0.06  0.0000
   5   H1        3.2799    0.1255   -1.7544   hc 0 0.023  0.0000
   6   H2        2.7190    1.3572   -2.9567   hc 0 0.023  0.0000
   7   H3        3.1230    1.8635   -1.2646   hc 0 0.023  0.0000
   8   H4        0.7070    1.7910   -1.3620   hc 0 0.026  0.0000
   9   H5        0.7090    0.2270   -2.2620   hc 0 0.026  0.0000
  10   H6        1.7010   -0.9250   -0.2580   hc 0 0.026  0.0000
  11   H7        1.6990    0.6390    0.6420   hc 0 0.026  0.0000
  12   H8       -0.2920   -0.7430    1.2320   hc 0 0.023  0.0000
  13   H9       -0.8030    0.7810    0.3960   hc 0 0.023  0.0000
  14  H10       -0.8010   -0.7880   -0.5060   hc 0 0.023  0.0000
@<TRIPOS>BOND
    1     1     2  1
    2     1     5  1
    3     1     6  1
    4     1     7  1
    5     2     3  1
    6     2     8  1
    7     2     9  1
    8     3     4  1
    9     3    10  1
   10     3    11  1
   11     4    12  1
   12     4    13  1
   13     4    14  1

@<TRIPOS>MOLECULE
MOL
   14   13    0    0    0




@<TRIPOS>ATOM
   1   C1        2.6690    1.0520   -1.8840   c3 0 -0.06  0.0000
   2   C2        1.2420    0.8100   -1.4650   c3 0 -0.05  0.0000
   3   C3        1.1660    0.0560   -0.1540   c3 0 -0.05  0.0000
   4   C4       -0.2610   -0.1870    0.2650   c3 0 -0.06  0.0000
   5   H1        3.2757    0.1205   -1.7715   hc 0 0.023  0.0000
   6   H2        2.7176    1.3747   -2.9516   hc 0 0.023  0.0000
   7   H3        3.1286    1.8509   -1.2525   hc 0 0.023  0.0000
   8   H4        0.7070    1.7910   -1.3620   hc 0 0.026  0.0000
   9   H5        0.7090    0.2270   -2.2620   hc 0 0.026  0.0000
  10   H6        1.7010   -0.9250   -0.2580   hc 0 0.026  0.0000
  11   H7        1.6990    0.6390    0.6420   hc 0 0.026  0.0000
  12   H8       -0.2920   -0.7430    1.2320   hc 0 0.023  0.0000
  13   H9       -0.8030    0.7810    0.3960   hc 0 0.023  0.0000
  14  H10       -0.8010   -0.7880   -0.5060   hc 0 0.023  0.0000
@<TRIPOS>BOND
    1     1     2  1
    2     1     5  1
    3     1     6  1
    4     1     7  1
    5     2     3  1
    6     2     8  1
    7     2     9  1
    8     3     4  1
    9     3    10  1
   10     3    11  1
   11     4    12  1
   12     4    13  1
   13     4    14  1

@<TRIPOS>MOLECULE
MOL
   14   13    0    0    0




@<TRIPOS>ATOM
   1   C1        2.6690    1.0520   -1.8840   c3 0 -0.06  0.0000
   2   C2        1.2420    0.8100   -1.4650   c3 0 -0.05  0.0000
   3   C3        1.1660    0.0560   -0.1540   c3 0 -0.05  0.0000
   4   C4       -0.2610   -0.1870    0.2650   c3 0 -0.06  0.0000
   5   H1        3.2715    0.1158   -1.7886   hc 0 0.023  0.0000
   6   H2        2.7162    1.3921   -2.9463   hc 0 0.023  0.0000
   7   H3        3.1343    1.8381   -1.2407   hc 0 0.023  0.0000
   8   H4        0.7070    1.7910   -1.3620   hc 0 0.026  0.0000
   9   H5        0.7090    0.2270   -2.2620   hc 0 0.026  0.0000
  10   H6        1.7010   -0.9250   -0.2580   hc 0 0.026  0.0000
  11   H7        1.6990    0.6390    0.6420   hc 0 0.026  0.0000
  12   H8       -0.2920   -0.7430    1.2320   hc 0 0.023  0.0000
  13   H9       -0.8030    0.7810    0.3960   hc 0 0.023  0.0000
  14  H10       -0.8010   -0.7880   -0.5060   hc 0 0.023  0.0000
@<TRIPOS>BOND
    1     1     2  1
    2     1     5  1
    3     1     6  1
    4     1     7  1
    5     2     3  1
    6     2     8  1
    7     2     9  1
    8     3     4  1
    9     3    10  1
   10     3    11  1
   11     4    12  1
   12     4    13  1
   13     4    14  1

@<TRIPOS>MOLECULE
MOL
   14   13    0    0    0




@<TRIPOS>ATOM
   1   C1        2.6690    1.0520   -1.8840   c3 0 -0.06  0.0000
   2   C2        1.2420    0.8100   -1.4650   c3 0 -0.05  0.0000
   3   C3        1.1660    0.0560   -0.1540   c3 0 -0.05  0.0000
   4   C4       -0.2610   -0.1870    0.2650   c3 0 -0.06  0.0000
   5   H1        3.2672    0.1115   -1.8058   hc 0 0.023  0.0000
   6   H2        2.7149    1.4093   -2.9406   hc 0 0.023  0.0000
   7   H3        3.1399    1.8251   -1.2291   hc 0 0.023  0.0000
   8   H4        0.7070    1.7910   -1.3620   hc 0 0.026  0.0000
   9   H5        0.7090    0.2270   -2.2620   hc 0 0.026  0.0000
  10   H6        1.7010   -0.9250   -0.2580   hc 0 0.026  0.0000
  11   H7        1.6990    0.6390    0.6420   hc 0 0.026  0.0000
  12   H8       -0.2920   -0.7430    1.2320   hc 0 0.023  0.0000
  13   H9       -0.8030    0.7810    0.3960   hc 0 0.023  0.0000
  14  H10       -0.8010   -0.7880   -0.5060   hc 0 0.023  0.0000
@<TRIPOS>BOND
    1     1     2  1
    2     1     5  1
    3     1     6  1
    4     1     7  1
    5     2     3  1
    6     2     8  1
    7     2     9  1
    8     3     4  1
    9     3    10  1
   10     3    11  1
   11     4    12  1
   12     4    13  1
   13     4    14  1

@<TRIPOS>MOLECULE
MOL
   14   13    0    0    0




@<TRIPOS>ATOM
   1   C1        2.6690    1.0520   -1.8840   c3 0 -0.06  0.0000
   2   C2        1.2420    0.8100   -1.4650   c3 0 -0.05  0.0000
   3   C3        1.1660    0.0560   -0.1540   c3 0 -0.05  0.0000
   4   C4       -0.2610   -0.1870    0.2650   c3 0 -0.06  0.0000
   5   H1        3.2628    0.1075   -1.8231   hc 0 0.023  0.0000
   6   H2        2.7137    1.4265   -2.9347   hc 0 0.023  0.0000
   7   H3        3.1454    1.8119   -1.2178   hc 0 0.023  0.0000
   8   H4        0.7070    1.7910   -1.3620   hc 0 0.026  0.0000
   9   H5        0.7090    0.2270   -2.2620   hc 0 0.026  0.0000
  10   H6        1.7010   -0.9250   -0.2580   hc 0 0.026  0.0000
  11   H7        1.6990    0.6390    0.6420   hc 0 0.026  0.0000
  12   H8       -0.2920   -0.7430    1.2320   hc 0 0.023  0.0000
  13   H9       -0.8030    0.7810    0.3960   hc 0 0.023  0.0000
  14  H10       -0.8010   -0.7880   -0.5060   hc 0 0.023  0.0000
@<TRIPOS>BOND
    1     1     2  1
    2     1     5  1
    3     1     6  1
    4     1     7  1
    5     2     3  1
    6     2     8  1
    7     2     9  1
    8     3     4  1
    9     3    10  1
   10     3    11  1
   11     4    12  1
   12     4    13  1
   13     4    14  1

@<TRIPOS>MOLECULE
MOL
   14   13    0    0    0




@<TRIPOS>ATOM
   1   C1        2.6690    1.0520   -1.8840   c3 0 -0.06  0.0000
   2   C2        1.2420    0.8100   -1.4650   c3 0 -0.05  0.0000
   3   C3        1.1660    0.0560   -0.1540   c3 0 -0.05  0.0000
   4   C4       -0.2610   -0.1870    0.2650   c3 0 -0.06  0.0000
   5   H1        3.2583    0.1037   -1.8404   hc 0 0.023  0.0000
   6   H2        2.7127    1.4436   -2.9285   hc 0 0.023  0.0000
   7   H3        3.1510    1.7985   -1.2067   hc 0 0.023  0.0000
   8   H4        0.7070    1.7910   -1.3620   hc 0 0.026  0.0000
   9   H5        0.7090    0.2270   -2.2620   hc 0 0.026  0.0000
  10   H6        1.7010   -0.9250   -0.2580   hc 0 0.026  0.0000
  11   H7        1.6990    0.6390    0.6420   hc 0 0.026  0.0000
  12   H8       -0.2920   -0.7430    1.2320   hc 0 0.023  0.0000
  13   H9       -0.8030    0.7810    0.3960   hc 0 0.023  0.0000
  14  H10       -0.8010   -0.7880   -0.5060   hc 0 0.023  0.0000
@<TRIPOS>BOND
    1     1     2  1
    2     1     5  1
    3     1     6  1
    4     1     7  1
    5     2     3  1
    6     2     8  1
    7     2     9  1
    8     3     4  1
    9     3    10  1
   10     3    11  1
   11     4    12  1
   12     4    13  1
   13     4    14  1

@<TRIPOS>MOLECULE
MOL
   14   13    0    0    0




@<TRIPOS>ATOM
   1   C1        2.6690    1.0520   -1.8840   c3 0 -0.06  0.0000
   2   C2        1.2420    0.8100   -1.4650   c3 0 -0.05  0.0000
   3   C3        1.1660    0.0560   -0.1540   c3 0 -0.05  0.0000
   4   C4       -0.2610   -0.1870    0.2650   c3 0 -0.06  0.0000
   5   H1        3.2538    0.1003   -1.8577   hc 0 0.023  0.0000
   6   H2        2.7117    1.4606   -2.9220   hc 0 0.023  0.0000
   7   H3        3.1565    1.7848   -1.1958   hc 0 0.023  0.0000
   8   H4        0.7070    1.7910   -1.3620   hc 0 0.026  0.0000
   9   H5        0.7090    0.2270   -2.2620   hc 0 0.026  0.0000
  10   H6        1.7010   -0.9250   -0.2580   hc 0 0.026  0.0000
  11   H7        1.6990    0.6390    0.6420   hc 0 0.026  0.0000
  12   H8       -0.2920   -0.7430    1.2320   hc 0 0.023  0.0000
  13   H9       -0.8030    0.7810    0.3960   hc 0 0.023  0.0000
  14  H10       -0.8010   -0.7880   -0.5060   hc 0 0.023  0.0000
@<TRIPOS>BOND
    1     1     2  1
    2     1     5  1
    3     1     6  1
    4     1     7  1
    5     2     3  1
    6     2     8  1
    7     2     9  1
    8     3     4  1
    9     3    10  1
   10     3    11  1
   11     4    12  1
   12     4    13  1
   13     4    14  1

@<TRIPOS>MOLECULE
MOL
   14   13    0    0    0




@<TRIPOS>ATOM
   1   C1        2.6690    1.0520   -1.8840   c3 0 -0.06  0.0000
   2   C2        1.2420    0.8100   -1.4650   c3 0 -0.05  0.0000
   3   C3        1.1660    0.0560   -0.1540   c3 0 -0.05  0.0000
   4   C4       -0.2610   -0.1870    0.2650   c3 0 -0.06  0.0000
   5   H1        3.2492    0.0972   -1.8751   hc 0 0.023  0.0000
   6   H2        2.7108    1.4775   -2.9152   hc 0 0.023  0.0000
   7   H3        3.1619    1.7710   -1.1852   hc 0 0.023  0.0000
   8   H4        0.7070    1.7910   -1.3620   hc 0 0.026  0.0000
   9   H5        0.7090    0.2270   -2.2620   hc 0 0.026  0.0000
  10   H6        1.7010   -0.9250   -0.2580   hc 0 0.026  0.0000
  11   H7        1.6990    0.6390    0.6420   hc 0 0.026  0.0000
  12   H8       -0.2920   -0.7430    1.2320   hc 0 0.023  0.0000
  13   H9       -0.8030    0.7810    0.3960   hc 0 0.023  0.0000
  14  H10       -0.8010   -0.7880   -0.5060   hc 0 0.023  0.0000
@<TRIPOS>BOND
    1     1     2  1
    2     1     5  1
    3     1     6  1
    4     1     7  1
    5     2     3  1
    6     2     8  1
    7     2     9  1
    8     3     4  1
    9     3    10  1
   10     3    11  1
   11     4    12  1
   12     4    13  1
   13     4    14  1

@<TRIPOS>MOLECULE
MOL
   14   13    0    0    0




@<TRIPOS>ATOM
   1   C1        2.6690    1.0520   -1.8840   c3 0 -0.06  0.0000
   2   C2        1.2420    0.8100   -1.4650   c3 0 -0.05  0.0000
   3   C3        1.1660    0.0560   -0.1540   c3 0 -0.05  0.0000
   4   C4       -0.2610   -0.1870    0.2650   c3 0 -0.06  0.0000
   5   H1        3.2446    0.0944   -1.8925   hc 0 0.023  0.0000
   6   H2        2.7100    1.4943   -2.9082   hc 0 0.023  0.0000
   7   H3        3.1674    1.7569   -1.1748   hc 0 0.023  0.0000
   8   H4        0.7070    1.7910   -1.3620   hc 0 0.026  0.0000
   9   H5        0.7090    0.2270   -2.2620   hc 0 0.026  0.0000
  10   H6        1.7010   -0.9250   -0.2580   hc 0 0.026  0.0000
  11   H7        1.6990    0.6390    0.6420   hc 0 0.026  0.0000
  12   H8       -0.2920   -0.7430    1.2320   hc 0 0.023  0.0000
  13   H9       -0.8030    0.7810    0.3960   hc 0 0.023  0.0000
  14  H10       -0.8010   -0.7880   -0.5060   hc 0 0.023  0.0000
@<TRIPOS>BOND
    1     1     2  1
    2     1     5  1
    3     1     6  1
    4     1     7  1
    5     2     3  1
    6     2     8  1
    7     2     9  1
    8     3     4  1
    9     3    10  1
   10     3    11  1
   11     4    12  1
   12     4    13  1
   13     4    14  1

@<TRIPOS>MOLECULE
MOL
   14   13    0    0    0




@<TRIPOS>ATOM
   1   C1        2.6690    1.0520   -1.8840   c3 0 -0.06  0.0000
   2   C2        1.2420    0.8100   -1.4650   c3 0 -0.05  0.0000
   3   C3        1.1660    0.0560   -0.1540   c3 0 -0.05  0.0000
   4   C4       -0.2610   -0.1870    0.2650   c3 0 -0.06  0.0000
   5   H1        3.2399    0.0919   -1.9100   hc 0 0.023  0.0000
   6   H2        2.7094    1.5110   -2.9008   hc 0 0.023  0.0000
   7   H3        3.1728    1.7427   -1.1647   hc 0 0.023  0.0000
   8   H4        0.7070    1.7910   -1.3620   hc 0 0.026  0.0000
   9   H5        0.7090    0.2270   -2.2620   hc 0 0.026  0.0000
  10   H6        1.7010   -0.9250   -0.2580   hc 0 0.026  0.0000
  11   H7        1.6990    0.6390    0.6420   hc 0 0.026  0.0000
  12   H8       -0.2920   -0.7430    1.2320   hc 0 0.023  0.0000
  13   H9       -0.8030    0.7810    0.3960   hc 0 0.023  0.0000
  14  H10       -0.8010   -0.7880   -0.5060   hc 0 0.023  0.0000
@<TRIPOS>BOND
    1     1     2  1
    2     1     5  1
    3     1     6  1
    4     1     7  1
    5     2     3  1
    6     2     8  1
    7     2     9  1
    8     3     4  1
    9     3    10  1
   10     3    11  1
   11     4    12  1
   12     4    13  1
   13     4    14  1

@<TRIPOS>MOLECULE
MOL
   14   13    0    0    0




@<TRIPOS>ATOM
   1   C1        2.6690    1.0520   -1.8840   c3 0 -0.06  0.0000
   2   C2        1.2420    0.8100   -1.4650   c3 0 -0.05  0.0000
   3   C3        1.1660    0.0560   -0.1540   c3 0 -0.05  0.0000
   4   C4       -0.2610   -0.1870    0.2650   c3 0 -0.06  0.0000
   5   H1        3.2351    0.0897   -1.9275   hc 0 0.023  0.0000
   6   H2        2.7088    1.5276   -2.8932   hc 0 0.023  0.0000
   7   H3        3.1781    1.7283   -1.1548   hc 0 0.023  0.0000
   8   H4        0.7070    1.7910   -1.3620   hc 0 0.026  0.0000
   9   H5        0.7090    0.2270   -2.2620   hc 0 0.026  0.0000
  10   H6        1.7010   -0.9250   -0.2580   hc 0 0.026  0.0000
  11   H7        1.6990    0.6390    0.6420   hc 0 0.026  0.0000
  12   H8       -0.2920   -0.7430    1.2320   hc 0 0.023  0.0000
  13   H9       -0.8030    0.7810    0.3960   hc 0 0.023  0.0000
  14  H10       -0.8010   -0.7880   -0.5060   hc 0 0.023  0.0000
@<TRIPOS>BOND
    1     1     2  1
    2     1     5  1
    3     1     6  1
    4     1     7  1
    5     2     3  1
    6     2     8  1
    7     2     9  1
    8     3     4  1
    9     3    10  1
   10     3    11  1
   11     4    12  1
   12     4    13  1
   13     4    14  1

@<TRIPOS>MOLECULE
MOL
   14   13    0    0    0




@<TRIPOS>ATOM
   1   C1        2.6690    1.0520   -1.8840   c3 0 -0.06  0.0000
   2   C2        1.2420    0.8100   -1.4650   c3 0 -0.05  0.0000
   3   C3        1.1660    0.0560   -0.1540   c3 0 -0.05  0.0000
   4   C4       -0.2610   -0.1870    0.2650   c3 0 -0.06  0.0000
   5   H1        3.2303    0.0878   -1.9450   hc 0 0.023  0.0000
   6   H2        2.7083    1.5440   -2.8853   hc 0 0.023  0.0000
   7   H3        3.1834    1.7137   -1.1452   hc 0 0.023  0.0000
   8   H4        0.7070    1.7910   -1.3620   hc 0 0.026  0.0000
   9   H5        0.7090    0.2270   -2.2620   hc 0 0.026  0.0000
  10   H6        1.7010   -0.9250   -0.2580   hc 0 0.026  0.0000
  11   H7        1.6990    0.6390    0.6420   hc 0 0.026  0.0000
  12   H8       -0.2920   -0.7430    1.2320   hc 0 0.023  0.0000
  13   H9       -0.8030    0.7810    0.3960   hc 0 0.023  0.0000
  14  H10       -0.8010   -0.7880   -0.5060   hc 0 0.023  0.0000
@<TRIPOS>BOND
    1     1     2  1
    2     1     5  1
    3     1     6  1
    4     1     7  1
    5     2     3  1
    6     2     8  1
    7     2     9  1
    8     3     4  1
    9     3    10  1
   10     3    11  1
   11     4    12  1
   12     4    13  1
   13     4    14  1

@<TRIPOS>MOLECULE
MOL
   14   13    0    0    0




@<TRIPOS>ATOM
   1   C1        2.6690    1.0520   -1.8840   c3 0 -0.06  0.0000
   2   C2        1.2420    0.8100   -1.4650   c3 0 -0.05  0.0000
   3   C3        1.1660    0.0560   -0.1540   c3 0 -0.05  0.0000
   4   C4       -0.2610   -0.1870    0.2650   c3 0 -0.06  0.0000
   5   H1        3.2254    0.0863   -1.9625   hc 0 0.023  0.0000
   6   H2        2.7079    1.5603   -2.8772   hc 0 0.023  0.0000
   7   H3        3.1887    1.6989   -1.1358   hc 0 0.023  0.0000
   8   H4        0.7070    1.7910   -1.3620   hc 0 0.026  0.0000
   9   H5        0.7090    0.2270   -2.2620   hc 0 0.026  0.0000
  10   H6        1.7010   -0.9250   -0.2580   hc 0 0.026  0.0000
  11   H7        1.6990    0.6390    0.6420   hc 0 0.026  0.0000
  12   H8       -0.2920   -0.7430    1.2320   hc 0 0.023  0.0000
  13   H9       -0.8030    0.7810    0.3960   hc 0 0.023  0.0000
  14  H10       -0.8010   -0.7880   -0.5060   hc 0 0.023  0.0000
@<TRIPOS>BOND
    1     1     2  1
    2     1     5  1
    3     1     6  1
    4     1     7  1
    5     2     3  1
    6     2     8  1
    7     2     9  1
    8     3     4  1
    9     3    10  1
   10     3    11  1
   11     4    12  1
   12     4    13  1
   13     4    14  1

@<TRIPOS>MOLECULE
MOL
   14   13    0    0    0




@<TRIPOS>ATOM
   1   C1        2.6690    1.0520   -1.8840   c3 0 -0.06  0.0000
   2   C2        1.2420    0.8100   -1.4650   c3 0 -0.05  0.0000
   3   C3        1.1660    0.0560   -0.1540   c3 0 -0.05  0.0000
   4   C4       -0.2610   -0.1870    0.2650   c3 0 -0.06  0.0000
   5   H1        3.2205    0.0850   -1.9800   hc 0 0.023  0.0000
   6   H2        2.7077    1.5764   -2.8688   hc 0 0.023  0.0000
   7   H3        3.1939    1.6839   -1.1267   hc 0 0.023  0.0000
   8   H4        0.7070    1.7910   -1.3620   hc 0 0.026  0.0000
   9   H5        0.7090    0.2270   -2.2620   hc 0 0.026  0.0000
  10   H6        1.7010   -0.9250   -0.2580   hc 0 0.026  0.0000
  11   H7        1.6990    0.6390    0.6420   hc 0 0.026  0.0000
  12   H8       -0.2920   -0.7430    1.2320   hc 0 0.023  0.0000
  13   H9       -0.8030    0.7810    0.3960   hc 0 0.023  0.0000
  14  H10       -0.8010   -0.7880   -0.5060   hc 0 0.023  0.0000
@<TRIPOS>BOND
    1     1     2  1
    2     1     5  1
    3     1     6  1
    4     1     7  1
    5     2     3  1
    6     2     8  1
    7     2     9  1
    8     3     4  1
    9     3    10  1
   10     3    11  1
   11     4    12  1
   12     4    13  1
   13     4    14  1

@<TRIPOS>MOLECULE
MOL
   14   13    0    0    0




@<TRIPOS>ATOM
   1   C1        2.6690    1.0520   -1.8840   c3 0 -0.06  0.0000
   2   C2        1.2420    0.8100   -1.4650   c3 0 -0.05  0.0000
   3   C3        1.1660    0.0560   -0.1540   c3 0 -0.05  0.0000
   4   C4       -0.2610   -0.1870    0.2650   c3 0 -0.06  0.0000
   5   H1        3.2155    0.0841   -1.9976   hc 0 0.023  0.0000
   6   H2        2.7075    1.5924   -2.8601   hc 0 0.023  0.0000
   7   H3        3.1990    1.6687   -1.1179   hc 0 0.023  0.0000
   8   H4        0.7070    1.7910   -1.3620   hc 0 0.026  0.0000
   9   H5        0.7090    0.2270   -2.2620   hc 0 0.026  0.0000
  10   H6        1.7010   -0.9250   -0.2580   hc 0 0.026  0.0000
  11   H7        1.6990    0.6390    0.6420   hc 0 0.026  0.0000
  12   H8       -0.2920   -0.7430    1.2320   hc 0 0.023  0.0000
  13   H9       -0.8030    0.7810    0.3960   hc 0 0.023  0.0000
  14  H10       -0.8010   -0.7880   -0.5060   hc 0 0.023  0.0000
@<TRIPOS>BOND
    1     1     2  1
    2     1     5  1
    3     1     6  1
    4     1     7  1
    5     2     3  1
    6     2     8  1
    7     2     9  1
    8     3     4  1
    9     3    10  1
   10     3    11  1
   11     4    12  1
   12     4    13  1
   13     4    14  1

@<TRIPOS>MOLECULE
MOL
   14   13    0    0    0




@<TRIPOS>ATOM
   1   C1        2.6690    1.0520   -1.8840   c3 0 -0.06  0.0000
   2   C2        1.2420    0.8100   -1.4650   c3 0 -0.05  0.0000
   3   C3        1.1660    0.0560   -0.1540   c3 0 -0.05  0.0000
   4   C4       -0.2610   -0.1870    0.2650   c3 0 -0.06  0.0000
   5   H1        3.2105    0.0835   -2.0151   hc 0 0.023  0.0000
   6   H2        2.7075    1.6083   -2.8511   hc 0 0.023  0.0000
   7   H3        3.2042    1.6534   -1.1093   hc 0 0.023  0.0000
   8   H4        0.7070    1.7910   -1.3620   hc 0 0.026  0.0000
   9   H5        0.7090    0.2270   -2.2620   hc 0 0.026  0.0000
  10   H6        1.7010   -0.9250   -0.2580   hc 0 0.026  0.0000
  11   H7        1.6990    0.6390    0.6420   hc 0 0.026  0.0000
  12   H8       -0.2920   -0.7430    1.2320   hc 0 0.023  0.0000
  13   H9       -0.8030    0.7810    0.3960   hc 0 0.023  0.0000
  14  H10       -0.8010   -0.7880   -0.5060   hc 0 0.023  0.0000
@<TRIPOS>BOND
    1     1     2  1
    2     1     5  1
    3     1     6  1
    4     1     7  1
    5     2     3  1
    6     2     8  1
    7     2     9  1
    8     3     4  1
    9     3    10  1
   10     3    11  1
   11     4    12  1
   12     4    13  1
   13     4    14  1

@<TRIPOS>MOLECULE
MOL
   14   13    0    0    0




@<TRIPOS>ATOM
   1   C1        2.6690    1.0520   -1.8840   c3 0 -0.06  0.0000
   2   C2        1.2420    0.8100   -1.4650   c3 0 -0.05  0.0000
   3   C3        1.1660    0.0560   -0.1540   c3 0 -0.05  0.0000
   4   C4       -0.2610   -0.1870    0.2650   c3 0 -0.06  0.0000
   5   H1        3.2054    0.0832   -2.0326   hc 0 0.023  0.0000
   6   H2        2.7075    1.6240   -2.8419   hc 0 0.023  0.0000
   7   H3        3.2092    1.6379   -1.1010   hc 0 0.023  0.0000
   8   H4        0.7070    1.7910   -1.3620   hc 0 0.026  0.0000
   9   H5        0.7090    0.2270   -2.2620   hc 0 0.026  0.0000
  10   H6        1.7010   -0.9250   -0.2580   hc 0 0.026  0.0000
  11   H7        1.6990    0.6390    0.6420   hc 0 0.026  0.0000
  12   H8       -0.2920   -0.7430    1.2320   hc 0 0.023  0.0000
  13   H9       -0.8030    0.7810    0.3960   hc 0 0.023  0.0000
  14  H10       -0.8010   -0.7880   -0.5060   hc 0 0.023  0.0000
@<TRIPOS>BOND
    1     1     2  1
    2     1     5  1
    3     1     6  1
    4     1     7  1
    5     2     3  1
    6     2     8  1
    7     2     9  1
    8     3     4  1
    9     3    10  1
   10     3    11  1
   11     4    12  1
   12     4    13  1
   13     4    14  1

@<TRIPOS>MOLECULE
MOL
   14   13    0    0    0




@<TRIPOS>ATOM
   1   C1        2.6690    1.0520   -1.8840   c3 0 -0.06  0.0000
   2   C2        1.2420    0.8100   -1.4650   c3 0 -0.05  0.0000
   3   C3        1.1660    0.0560   -0.1540   c3 0 -0.05  0.0000
   4   C4       -0.2610   -0.1870    0.2650   c3 0 -0.06  0.0000
   5   H1        3.2002    0.0832   -2.0501   hc 0 0.023  0.0000
   6   H2        2.7076    1.6396   -2.8324   hc 0 0.023  0.0000
   7   H3        3.2142    1.6223   -1.0930   hc 0 0.023  0.0000
   8   H4        0.7070    1.7910   -1.3620   hc 0 0.026  0.0000
   9   H5        0.7090    0.2270   -2.2620   hc 0 0.026  0.0000
  10   H6        1.7010   -0.9250   -0.2580   hc 0 0.026  0.0000
  11   H7        1.6990    0.6390    0.6420   hc 0 0.026  0.0000
  12   H8       -0.2920   -0.7430    1.2320   hc 0 0.023  0.0000
  13   H9       -0.8030    0.7810    0.3960   hc 0 0.023  0.0000
  14  H10       -0.8010   -0.7880   -0.5060   hc 0 0.023  0.0000
@<TRIPOS>BOND
    1     1     2  1
    2     1     5  1
    3     1     6  1
    4     1     7  1
    5     2     3  1
    6     2     8  1
    7     2     9  1
    8     3     4  1
    9     3    10  1
   10     3    11  1
   11     4    12  1
   12     4    13  1
   13     4    14  1

@<TRIPOS>MOLECULE
MOL
   14   13    0    0    0




@<TRIPOS>ATOM
   1   C1        2.6690    1.0520   -1.8840   c3 0 -0.06  0.0000
   2   C2        1.2420    0.8100   -1.4650   c3 0 -0.05  0.0000
   3   C3        1.1660    0.0560   -0.1540   c3 0 -0.05  0.0000
   4   C4       -0.2610   -0.1870    0.2650   c3 0 -0.06  0.0000
   5   H1        3.1950    0.0835   -2.0676   hc 0 0.023  0.0000
   6   H2        2.7079    1.6550   -2.8227   hc 0 0.023  0.0000
   7   H3        3.2192    1.6065   -1.0852   hc 0 0.023  0.0000
   8   H4        0.7070    1.7910   -1.3620   hc 0 0.026  0.0000
   9   H5        0.7090    0.2270   -2.2620   hc 0 0.026  0.0000
  10   H6        1.7010   -0.9250   -0.2580   hc 0 0.026  0.0000
  11   H7        1.6990    0.6390    0.6420   hc 0 0.026  0.0000
  12   H8       -0.2920   -0.7430    1.2320   hc 0 0.023  0.0000
  13   H9       -0.8030    0.7810    0.3960   hc 0 0.023  0.0000
  14  H10       -0.8010   -0.7880   -0.5060   hc 0 0.023  0.0000
@<TRIPOS>BOND
    1     1     2  1
    2     1     5  1
    3     1     6  1
    4     1     7  1
    5     2     3  1
    6     2     8  1
    7     2     9  1
    8     3     4  1
    9     3    10  1
   10     3    11  1
   11     4    12  1
   12     4    13  1
   13     4    14  1

@<TRIPOS>MOLECULE
MOL
   14   13    0    0    0




@<TRIPOS>ATOM
   1   C1        2.6690    1.0520   -1.8840   c3 0 -0.06  0.0000
   2   C2        1.2420    0.8100   -1.4650   c3 0 -0.05  0.0000
   3   C3        1.1660    0.0560   -0.1540   c3 0 -0.05  0.0000
   4   C4       -0.2610   -0.1870    0.2650   c3 0 -0.06  0.0000
   5   H1        3.1898    0.0841   -2.0851   hc 0 0.023  0.0000
   6   H2        2.7082    1.6703   -2.8127   hc 0 0.023  0.0000
   7   H3        3.2241    1.5905   -1.0777   hc 0 0.023  0.0000
   8   H4        0.7070    1.7910   -1.3620   hc 0 0.026  0.0000
   9   H5        0.7090    0.2270   -2.2620   hc 0 0.026  0.0000
  10   H6        1.7010   -0.9250   -0.2580   hc 0 0.026  0.0000
  11   H7        1.6990    0.6390    0.6420   hc 0 0.026  0.0000
  12   H8       -0.2920   -0.7430    1.2320   hc 0 0.023  0.0000
  13   H9       -0.8030    0.7810    0.3960   hc 0 0.023  0.0000
  14  H10       -0.8010   -0.7880   -0.5060   hc 0 0.023  0.0000
@<TRIPOS>BOND
    1     1     2  1
    2     1     5  1
    3     1     6  1
    4     1     7  1
    5     2     3  1
    6     2     8  1
    7     2     9  1
    8     3     4  1
    9     3    10  1
   10     3    11  1
   11     4    12  1
   12     4    13  1
   13     4    14  1

@<TRIPOS>MOLECULE
MOL
   14   13    0    0    0




@<TRIPOS>ATOM
   1   C1        2.6690    1.0520   -1.8840   c3 0 -0.06  0.0000
   2   C2        1.2420    0.8100   -1.4650   c3 0 -0.05  0.0000
   3   C3        1.1660    0.0560   -0.1540   c3 0 -0.05  0.0000
   4   C4       -0.2610   -0.1870    0.2650   c3 0 -0.06  0.0000
   5   H1        3.1845    0.0851   -2.1025   hc 0 0.023  0.0000
   6   H2        2.7087    1.6853   -2.8025   hc 0 0.023  0.0000
   7   H3        3.2289    1.5745   -1.0705   hc 0 0.023  0.0000
   8   H4        0.7070    1.7910   -1.3620   hc 0 0.026  0.0000
   9   H5        0.7090    0.2270   -2.2620   hc 0 0.026  0.0000
  10   H6        1.7010   -0.9250   -0.2580   hc 0 0.026  0.0000
  11   H7        1.6990    0.6390    0.6420   hc 0 0.026  0.0000
  12   H8       -0.2920   -0.7430    1.2320   hc 0 0.023  0.0000
  13   H9       -0.8030    0.7810    0.3960   hc 0 0.023  0.0000
  14  H10       -0.8010   -0.7880   -0.5060   hc 0 0.023  0.0000
@<TRIPOS>BOND
    1     1     2  1
    2     1     5  1
    3     1     6  1
    4     1     7  1
    5     2     3  1
    6     2     8  1
    7     2     9  1
    8     3     4  1
    9     3    10  1
   10     3    11  1
   11     4    12  1
   12     4    13  1
   13     4    14  1

@<TRIPOS>MOLECULE
MOL
   14   13    0    0    0




@<TRIPOS>ATOM
   1   C1        2.6690    1.0520   -1.8840   c3 0 -0.06  0.0000
   2   C2        1.2420    0.8100   -1.4650   c3 0 -0.05  0.0000
   3   C3        1.1660    0.0560   -0.1540   c3 0 -0.05  0.0000
   4   C4       -0.2610   -0.1870    0.2650   c3 0 -0.06  0.0000
   5   H1        3.1792    0.0863   -2.1199   hc 0 0.023  0.0000
   6   H2        2.7092    1.7002   -2.7920   hc 0 0.023  0.0000
   7   H3        3.2337    1.5582   -1.0636   hc 0 0.023  0.0000
   8   H4        0.7070    1.7910   -1.3620   hc 0 0.026  0.0000
   9   H5        0.7090    0.2270   -2.2620   hc 0 0.026  0.0000
  10   H6        1.7010   -0.9250   -0.2580   hc 0 0.026  0.0000
  11   H7        1.6990    0.6390    0.6420   hc 0 0.026  0.0000
  12   H8       -0.2920   -0.7430    1.2320   hc 0 0.023  0.0000
  13   H9       -0.8030    0.7810    0.3960   hc 0 0.023  0.0000
  14  H10       -0.8010   -0.7880   -0.5060   hc 0 0.023  0.0000
@<TRIPOS>BOND
    1     1     2  1
    2     1     5  1
    3     1     6  1
    4     1     7  1
    5     2     3  1
    6     2     8  1
    7     2     9  1
    8     3     4  1
    9     3    10  1
   10     3    11  1
   11     4    12  1
   12     4    13  1
   13     4    14  1

@<TRIPOS>MOLECULE
MOL
   14   13    0    0    0




@<TRIPOS>ATOM
   1   C1        2.6690    1.0520   -1.8840   c3 0 -0.06  0.0000
   2   C2        1.2420    0.8100   -1.4650   c3 0 -0.05  0.0000
   3   C3        1.1660    0.0560   -0.1540   c3 0 -0.05  0.0000
   4   C4       -0.2610   -0.1870    0.2650   c3 0 -0.06  0.0000
   5   H1        3.1738    0.0879   -2.1373   hc 0 0.023  0.0000
   6   H2        2.7099    1.7150   -2.7813   hc 0 0.023  0.0000
   7   H3        3.2385    1.5419   -1.0570   hc 0 0.023  0.0000
   8   H4        0.7070    1.7910   -1.3620   hc 0 0.026  0.0000
   9   H5        0.7090    0.2270   -2.2620   hc 0 0.026  0.0000
  10   H6        1.7010   -0.9250   -0.2580   hc 0 0.026  0.0000
  11   H7        1.6990    0.6390    0.6420   hc 0 0.026  0.0000
  12   H8       -0.2920   -0.7430    1.2320   hc 0 0.023  0.0000
  13   H9       -0.8030    0.7810    0.3960   hc 0 0.023  0.0000
  14  H10       -0.8010   -0.7880   -0.5060   hc 0 0.023  0.0000
@<TRIPOS>BOND
    1     1     2  1
    2     1     5  1
    3     1     6  1
    4     1     7  1
    5     2     3  1
    6     2     8  1
    7     2     9  1
    8     3     4  1
    9     3    10  1
   10     3    11  1
   11     4    12  1
   12     4    13  1
   13     4    14  1

@<TRIPOS>MOLECULE
MOL
   14   13    0    0    0




@<TRIPOS>ATOM
   1   C1        2.6690    1.0520   -1.8840   c3 0 -0.06  0.0000
   2   C2        1.2420    0.8100   -1.4650   c3 0 -0.05  0.0000
   3   C3        1.1660    0.0560   -0.1540   c3 0 -0.05  0.0000
   4   C4       -0.2610   -0.1870    0.2650   c3 0 -0.06  0.0000
   5   H1        3.1684    0.0898   -2.1546   hc 0 0.023  0.0000
   6   H2        2.7106    1.7295   -2.7703   hc 0 0.023  0.0000
   7   H3        3.2431    1.5254   -1.0506   hc 0 0.023  0.0000
   8   H4        0.7070    1.7910   -1.3620   hc 0 0.026  0.0000
   9   H5        0.7090    0.2270   -2.2620   hc 0 0.026  0.0000
  10   H6        1.7010   -0.9250   -0.2580   hc 0 0.026  0.0000
  11   H7        1.6990    0.6390    0.6420   hc 0 0.026  0.0000
  12   H8       -0.2920   -0.7430    1.2320   hc 0 0.023  0.0000
  13   H9       -0.8030    0.7810    0.3960   hc 0 0.023  0.0000
  14  H10       -0.8010   -0.7880   -0.5060   hc 0 0.023  0.0000
@<TRIPOS>BOND
    1     1     2  1
    2     1     5  1
    3     1     6  1
    4     1     7  1
    5     2     3  1
    6     2     8  1
    7     2     9  1
    8     3     4  1
    9     3    10  1
   10     3    11  1
   11     4    12  1
   12     4    13  1
   13     4    14  1

@<TRIPOS>MOLECULE
MOL
   14   13    0    0    0




@<TRIPOS>ATOM
   1   C1        2.6690    1.0520   -1.8840   c3 0 -0.06  0.0000
   2   C2        1.2420    0.8100   -1.4650   c3 0 -0.05  0.0000
   3   C3        1.1660    0.0560   -0.1540   c3 0 -0.05  0.0000
   4   C4       -0.2610   -0.1870    0.2650   c3 0 -0.06  0.0000
   5   H1        3.1630    0.0920   -2.1719   hc 0 0.023  0.0000
   6   H2        2.7115    1.7439   -2.7591   hc 0 0.023  0.0000
   7   H3        3.2477    1.5087   -1.0445   hc 0 0.023  0.0000
   8   H4        0.7070    1.7910   -1.3620   hc 0 0.026  0.0000
   9   H5        0.7090    0.2270   -2.2620   hc 0 0.026  0.0000
  10   H6        1.7010   -0.9250   -0.2580   hc 0 0.026  0.0000
  11   H7        1.6990    0.6390    0.6420   hc 0 0.026  0.0000
  12   H8       -0.2920   -0.7430    1.2320   hc 0 0.023  0.0000
  13   H9       -0.8030    0.7810    0.3960   hc 0 0.023  0.0000
  14  H10       -0.8010   -0.7880   -0.5060   hc 0 0.023  0.0000
@<TRIPOS>BOND
    1     1     2  1
    2     1     5  1
    3     1     6  1
    4     1     7  1
    5     2     3  1
    6     2     8  1
    7     2     9  1
    8     3     4  1
    9     3    10  1
   10     3    11  1
   11     4    12  1
   12     4    13  1
   13     4    14  1

@<TRIPOS>MOLECULE
MOL
   14   13    0    0    0




@<TRIPOS>ATOM
   1   C1        2.6690    1.0520   -1.8840   c3 0 -0.06  0.0000
   2   C2        1.2420    0.8100   -1.4650   c3 0 -0.05  0.0000
   3   C3        1.1660    0.0560   -0.1540   c3 0 -0.05  0.0000
   4   C4       -0.2610   -0.1870    0.2650   c3 0 -0.06  0.0000
   5   H1        3.1575    0.0945   -2.1891   hc 0 0.023  0.0000
   6   H2        2.7124    1.7580   -2.7477   hc 0 0.023  0.0000
   7   H3        3.2523    1.4920   -1.0387   hc 0 0.023  0.0000
   8   H4        0.7070    1.7910   -1.3620   hc 0 0.026  0.0000
   9   H5        0.7090    0.2270   -2.2620   hc 0 0.026  0.0000
  10   H6        1.7010   -0.9250   -0.2580   hc 0 0.026  0.0000
  11   H7        1.6990    0.6390    0.6420   hc 0 0.026  0.0000
  12   H8       -0.2920   -0.7430    1.2320   hc 0 0.023  0.0000
  13   H9       -0.8030    0.7810    0.3960   hc 0 0.023  0.0000
  14  H10       -0.8010   -0.7880   -0.5060   hc 0 0.023  0.0000
@<TRIPOS>BOND
    1     1     2  1
    2     1     5  1
    3     1     6  1
    4     1     7  1
    5     2     3  1
    6     2     8  1
    7     2     9  1
    8     3     4  1
    9     3    10  1
   10     3    11  1
   11     4    12  1
   12     4    13  1
   13     4    14  1

@<TRIPOS>MOLECULE
MOL
   14   13    0    0    0




@<TRIPOS>ATOM
   1   C1        2.6690    1.0520   -1.8840   c3 0 -0.06  0.0000
   2   C2        1.2420    0.8100   -1.4650   c3 0 -0.05  0.0000
   3   C3        1.1660    0.0560   -0.1540   c3 0 -0.05  0.0000
   4   C4       -0.2610   -0.1870    0.2650   c3 0 -0.06  0.0000
   5   H1        3.1520    0.0974   -2.2063   hc 0 0.023  0.0000
   6   H2        2.7135    1.7720   -2.7360   hc 0 0.023  0.0000
   7   H3        3.2567    1.4751   -1.0332   hc 0 0.023  0.0000
   8   H4        0.7070    1.7910   -1.3620   hc 0 0.026  0.0000
   9   H5        0.7090    0.2270   -2.2620   hc 0 0.026  0.0000
  10   H6        1.7010   -0.9250   -0.2580   hc 0 0.026  0.0000
  11   H7        1.6990    0.6390    0.6420   hc 0 0.026  0.0000
  12   H8       -0.2920   -0.7430    1.2320   hc 0 0.023  0.0000
  13   H9       -0.8030    0.7810    0.3960   hc 0 0.023  0.0000
  14  H10       -0.8010   -0.7880   -0.5060   hc 0 0.023  0.0000
@<TRIPOS>BOND
    1     1     2  1
    2     1     5  1
    3     1     6  1
    4     1     7  1
    5     2     3  1
    6     2     8  1
    7     2     9  1
    8     3     4  1
    9     3    10  1
   10     3    11  1
   11     4    12  1
   12     4    13  1
   13     4    14  1

@<TRIPOS>MOLECULE
MOL
   14   13    0    0    0




@<TRIPOS>ATOM
   1   C1        2.6690    1.0520   -1.8840   c3 0 -0.06  0.0000
   2   C2        1.2420    0.8100   -1.4650   c3 0 -0.05  0.0000
   3   C3        1.1660    0.0560   -0.1540   c3 0 -0.05  0.0000
   4   C4       -0.2610   -0.1870    0.2650   c3 0 -0.06  0.0000
   5   H1        3.1464    0.1005   -2.2234   hc 0 0.023  0.0000
   6   H2        2.7147    1.7858   -2.7241   hc 0 0.023  0.0000
   7   H3        3.2611    1.4582   -1.0280   hc 0 0.023  0.0000
   8   H4        0.7070    1.7910   -1.3620   hc 0 0.026  0.0000
   9   H5        0.7090    0.2270   -2.2620   hc 0 0.026  0.0000
  10   H6        1.7010   -0.9250   -0.2580   hc 0 0.026  0.0000
  11   H7        1.6990    0.6390    0.6420   hc 0 0.026  0.0000
  12   H8       -0.2920   -0.7430    1.2320   hc 0 0.023  0.0000
  13   H9       -0.8030    0.7810    0.3960   hc 0 0.023  0.0000
  14  H10       -0.8010   -0.7880   -0.5060   hc 0 0.023  0.0000
@<TRIPOS>BOND
    1     1     2  1
    2     1     5  1
    3     1     6  1
    4     1     7  1
    5     2     3  1
    6     2     8  1
    7     2     9  1
    8     3     4  1
    9     3    10  1
   10     3    11  1
   11     4    12  1
   12     4    13  1
   13     4    14  1

@<TRIPOS>MOLECULE
MOL
   14   13    0    0    0




@<TRIPOS>ATOM
   1   C1        2.6690    1.0520   -1.8840   c3 0 -0.06  0.0000
   2   C2        1.2420    0.8100   -1.4650   c3 0 -0.05  0.0000
   3   C3        1.1660    0.0560   -0.1540   c3 0 -0.05  0.0000
   4   C4       -0.2610   -0.1870    0.2650   c3 0 -0.06  0.0000
   5   H1        3.1408    0.1040   -2.2404   hc 0 0.023  0.0000
   6   H2        2.7159    1.7993   -2.7120   hc 0 0.023  0.0000
   7   H3        3.2655    1.4411   -1.0231   hc 0 0.023  0.0000
   8   H4        0.7070    1.7910   -1.3620   hc 0 0.026  0.0000
   9   H5        0.7090    0.2270   -2.2620   hc 0 0.026  0.0000
  10   H6        1.7010   -0.9250   -0.2580   hc 0 0.026  0.0000
  11   H7        1.6990    0.6390    0.6420   hc 0 0.026  0.0000
  12   H8       -0.2920   -0.7430    1.2320   hc 0 0.023  0.0000
  13   H9       -0.8030    0.7810    0.3960   hc 0 0.023  0.0000
  14  H10       -0.8010   -0.7880   -0.5060   hc 0 0.023  0.0000
@<TRIPOS>BOND
    1     1     2  1
    2     1     5  1
    3     1     6  1
    4     1     7  1
    5     2     3  1
    6     2     8  1
    7     2     9  1
    8     3     4  1
    9     3    10  1
   10     3    11  1
   11     4    12  1
   12     4    13  1
   13     4    14  1

@<TRIPOS>MOLECULE
MOL
   14   13    0    0    0




@<TRIPOS>ATOM
   1   C1        2.6690    1.0520   -1.8840   c3 0 -0.06  0.0000
   2   C2        1.2420    0.8100   -1.4650   c3 0 -0.05  0.0000
   3   C3        1.1660    0.0560   -0.1540   c3 0 -0.05  0.0000
   4   C4       -0.2610   -0.1870    0.2650   c3 0 -0.06  0.0000
   5   H1        3.1352    0.1077   -2.2574   hc 0 0.023  0.0000
   6   H2        2.7173    1.8127   -2.6997   hc 0 0.023  0.0000
   7   H3        3.2697    1.4239   -1.0185   hc 0 0.023  0.0000
   8   H4        0.7070    1.7910   -1.3620   hc 0 0.026  0.0000
   9   H5        0.7090    0.2270   -2.2620   hc 0 0.026  0.0000
  10   H6        1.7010   -0.9250   -0.2580   hc 0 0.026  0.0000
  11   H7        1.6990    0.6390    0.6420   hc 0 0.026  0.0000
  12   H8       -0.2920   -0.7430    1.2320   hc 0 0.023  0.0000
  13   H9       -0.8030    0.7810    0.3960   hc 0 0.023  0.0000
  14  H10       -0.8010   -0.7880   -0.5060   hc 0 0.023  0.0000
@<TRIPOS>BOND
    1     1     2  1
    2     1     5  1
    3     1     6  1
    4     1     7  1
    5     2     3  1
    6     2     8  1
    7     2     9  1
    8     3     4  1
    9     3    10  1
   10     3    11  1
   11     4    12  1
   12     4    13  1
   13     4    14  1

@<TRIPOS>MOLECULE
MOL
   14   13    0    0    0




@<TRIPOS>ATOM
   1   C1        2.6690    1.0520   -1.8840   c3 0 -0.06  0.0000
   2   C2        1.2420    0.8100   -1.4650   c3 0 -0.05  0.0000
   3   C3        1.1660    0.0560   -0.1540   c3 0 -0.05  0.0000
   4   C4       -0.2610   -0.1870    0.2650   c3 0 -0.06  0.0000
   5   H1        3.1296    0.1118   -2.2743   hc 0 0.023  0.0000
   6   H2        2.7187    1.8258   -2.6871   hc 0 0.023  0.0000
   7   H3        3.2739    1.4067   -1.0142   hc 0 0.023  0.0000
   8   H4        0.7070    1.7910   -1.3620   hc 0 0.026  0.0000
   9   H5        0.7090    0.2270   -2.2620   hc 0 0.026  0.0000
  10   H6        1.7010   -0.9250   -0.2580   hc 0 0.026  0.0000
  11   H7        1.6990    0.6390    0.6420   hc 0 0.026  0.0000
  12   H8       -0.2920   -0.7430    1.2320   hc 0 0.023  0.0000
  13   H9       -0.8030    0.7810    0.3960   hc 0 0.023  0.0000
  14  H10       -0.8010   -0.7880   -0.5060   hc 0 0.023  0.0000
@<TRIPOS>BOND
    1     1     2  1
    2     1     5  1
    3     1     6  1
    4     1     7  1
    5     2     3  1
    6     2     8  1
    7     2     9  1
    8     3     4  1
    9     3    10  1
   10     3    11  1
   11     4    12  1
   12     4    13  1
   13     4    14  1

@<TRIPOS>MOLECULE
MOL
   14   13    0    0    0




@<TRIPOS>ATOM
   1   C1        2.6690    1.0520   -1.8840   c3 0 -0.06  0.0000
   2   C2        1.2420    0.8100   -1.4650   c3 0 -0.05  0.0000
   3   C3        1.1660    0.0560   -0.1540   c3 0 -0.05  0.0000
   4   C4       -0.2610   -0.1870    0.2650   c3 0 -0.06  0.0000
   5   H1        3.1239    0.1161   -2.2910   hc 0 0.023  0.0000
   6   H2        2.7203    1.8387   -2.6744   hc 0 0.023  0.0000
   7   H3        3.2781    1.3893   -1.0102   hc 0 0.023  0.0000
   8   H4        0.7070    1.7910   -1.3620   hc 0 0.026  0.0000
   9   H5        0.7090    0.2270   -2.2620   hc 0 0.026  0.0000
  10   H6        1.7010   -0.9250   -0.2580   hc 0 0.026  0.0000
  11   H7        1.6990    0.6390    0.6420   hc 0 0.026  0.0000
  12   H8       -0.2920   -0.7430    1.2320   hc 0 0.023  0.0000
  13   H9       -0.8030    0.7810    0.3960   hc 0 0.023  0.0000
  14  H10       -0.8010   -0.7880   -0.5060   hc 0 0.023  0.0000
@<TRIPOS>BOND
    1     1     2  1
    2     1     5  1
    3     1     6  1
    4     1     7  1
    5     2     3  1
    6     2     8  1
    7     2     9  1
    8     3     4  1
    9     3    10  1
   10     3    11  1
   11     4    12  1
   12     4    13  1
   13     4    14  1

@<TRIPOS>MOLECULE
MOL
   14   13    0    0    0




@<TRIPOS>ATOM
   1   C1        2.6690    1.0520   -1.8840   c3 0 -0.06  0.0000
   2   C2        1.2420    0.8100   -1.4650   c3 0 -0.05  0.0000
   3   C3        1.1660    0.0560   -0.1540   c3 0 -0.05  0.0000
   4   C4       -0.2610   -0.1870    0.2650   c3 0 -0.06  0.0000
   5   H1        3.1182    0.1208   -2.3077   hc 0 0.023  0.0000
   6   H2        2.7219    1.8514   -2.6614   hc 0 0.023  0.0000
   7   H3        3.2821    1.3719   -1.0065   hc 0 0.023  0.0000
   8   H4        0.7070    1.7910   -1.3620   hc 0 0.026  0.0000
   9   H5        0.7090    0.2270   -2.2620   hc 0 0.026  0.0000
  10   H6        1.7010   -0.9250   -0.2580   hc 0 0.026  0.0000
  11   H7        1.6990    0.6390    0.6420   hc 0 0.026  0.0000
  12   H8       -0.2920   -0.7430    1.2320   hc 0 0.023  0.0000
  13   H9       -0.8030    0.7810    0.3960   hc 0 0.023  0.0000
  14  H10       -0.8010   -0.7880   -0.5060   hc 0 0.023  0.0000
@<TRIPOS>BOND
    1     1     2  1
    2     1     5  1
    3     1     6  1
    4     1     7  1
    5     2     3  1
    6     2     8  1
    7     2     9  1
    8     3     4  1
    9     3    10  1
   10     3    11  1
   11     4    12  1
   12     4    13  1
   13     4    14  1

@<TRIPOS>MOLECULE
MOL
   14   13    0    0    0




@<TRIPOS>ATOM
   1   C1        2.6690    1.0520   -1.8840   c3 0 -0.06  0.0000
   2   C2        1.2420    0.8100   -1.4650   c3 0 -0.05  0.0000
   3   C3        1.1660    0.0560   -0.1540   c3 0 -0.05  0.0000
   4   C4       -0.2610   -0.1870    0.2650   c3 0 -0.06  0.0000
   5   H1        3.1125    0.1258   -2.3243   hc 0 0.023  0.0000
   6   H2        2.7237    1.8639   -2.6482   hc 0 0.023  0.0000
   7   H3        3.2861    1.3543   -1.0031   hc 0 0.023  0.0000
   8   H4        0.7070    1.7910   -1.3620   hc 0 0.026  0.0000
   9   H5        0.7090    0.2270   -2.2620   hc 0 0.026  0.0000
  10   H6        1.7010   -0.9250   -0.2580   hc 0 0.026  0.0000
  11   H7        1.6990    0.6390    0.6420   hc 0 0.026  0.0000
  12   H8       -0.2920   -0.7430    1.2320   hc 0 0.023  0.0000
  13   H9       -0.8030    0.7810    0.3960   hc 0 0.023  0.0000
  14  H10       -0.8010   -0.7880   -0.5060   hc 0 0.023  0.0000
@<TRIPOS>BOND
    1     1     2  1
    2     1     5  1
    3     1     6  1
    4     1     7  1
    5     2     3  1
    6     2     8  1
    7     2     9  1
    8     3     4  1
    9     3    10  1
   10     3    11  1
   11     4    12  1
   12     4    13  1
   13     4    14  1

@<TRIPOS>MOLECULE
MOL
   14   13    0    0    0




@<TRIPOS>ATOM
   1   C1        2.6690    1.0520   -1.8840   c3 0 -0.06  0.0000
   2   C2        1.2420    0.8100   -1.4650   c3 0 -0.05  0.0000
   3   C3        1.1660    0.0560   -0.1540   c3 0 -0.05  0.0000
   4   C4       -0.2610   -0.1870    0.2650   c3 0 -0.06  0.0000
   5   H1        3.1067    0.1311   -2.3408   hc 0 0.023  0.0000
   6   H2        2.7255    1.8762   -2.6349   hc 0 0.023  0.0000
   7   H3        3.2900    1.3367   -0.9999   hc 0 0.023  0.0000
   8   H4        0.7070    1.7910   -1.3620   hc 0 0.026  0.0000
   9   H5        0.7090    0.2270   -2.2620   hc 0 0.026  0.0000
  10   H6        1.7010   -0.9250   -0.2580   hc 0 0.026  0.0000
  11   H7        1.6990    0.6390    0.6420   hc 0 0.026  0.0000
  12   H8       -0.2920   -0.7430    1.2320   hc 0 0.023  0.0000
  13   H9       -0.8030    0.7810    0.3960   hc 0 0.023  0.0000
  14  H10       -0.8010   -0.7880   -0.5060   hc 0 0.023  0.0000
@<TRIPOS>BOND
    1     1     2  1
    2     1     5  1
    3     1     6  1
    4     1     7  1
    5     2     3  1
    6     2     8  1
    7     2     9  1
    8     3     4  1
    9     3    10  1
   10     3    11  1
   11     4    12  1
   12     4    13  1
   13     4    14  1

@<TRIPOS>MOLECULE
MOL
   14   13    0    0    0




@<TRIPOS>ATOM
   1   C1        2.6690    1.0520   -1.8840   c3 0 -0.06  0.0000
   2   C2        1.2420    0.8100   -1.4650   c3 0 -0.05  0.0000
   3   C3        1.1660    0.0560   -0.1540   c3 0 -0.05  0.0000
   4   C4       -0.2610   -0.1870    0.2650   c3 0 -0.06  0.0000
   5   H1        3.1010    0.1366   -2.3572   hc 0 0.023  0.0000
   6   H2        2.7275    1.8882   -2.6213   hc 0 0.023  0.0000
   7   H3        3.2938    1.3191   -0.9971   hc 0 0.023  0.0000
   8   H4        0.7070    1.7910   -1.3620   hc 0 0.026  0.0000
   9   H5        0.7090    0.2270   -2.2620   hc 0 0.026  0.0000
  10   H6        1.7010   -0.9250   -0.2580   hc 0 0.026  0.0000
  11   H7        1.6990    0.6390    0.6420   hc 0 0.026  0.0000
  12   H8       -0.2920   -0.7430    1.2320   hc 0 0.023  0.0000
  13   H9       -0.8030    0.7810    0.3960   hc 0 0.023  0.0000
  14  H10       -0.8010   -0.7880   -0.5060   hc 0 0.023  0.0000
@<TRIPOS>BOND
    1     1     2  1
    2     1     5  1
    3     1     6  1
    4     1     7  1
    5     2     3  1
    6     2     8  1
    7     2     9  1
    8     3     4  1
    9     3    10  1
   10     3    11  1
   11     4    12  1
   12     4    13  1
   13     4    14  1

@<TRIPOS>MOLECULE
MOL
   14   13    0    0    0




@<TRIPOS>ATOM
   1   C1        2.6690    1.0520   -1.8840   c3 0 -0.06  0.0000
   2   C2        1.2420    0.8100   -1.4650   c3 0 -0.05  0.0000
   3   C3        1.1660    0.0560   -0.1540   c3 0 -0.05  0.0000
   4   C4       -0.2610   -0.1870    0.2650   c3 0 -0.06  0.0000
   5   H1        3.0952    0.1425   -2.3735   hc 0 0.023  0.0000
   6   H2        2.7295    1.9000   -2.6076   hc 0 0.023  0.0000
   7   H3        3.2975    1.3014   -0.9946   hc 0 0.023  0.0000
   8   H4        0.7070    1.7910   -1.3620   hc 0 0.026  0.0000
   9   H5        0.7090    0.2270   -2.2620   hc 0 0.026  0.0000
  10   H6        1.7010   -0.9250   -0.2580   hc 0 0.026  0.0000
  11   H7        1.6990    0.6390    0.6420   hc 0 0.026  0.0000
  12   H8       -0.2920   -0.7430    1.2320   hc 0 0.023  0.0000
  13   H9       -0.8030    0.7810    0.3960   hc 0 0.023  0.0000
  14  H10       -0.8010   -0.7880   -0.5060   hc 0 0.023  0.0000
@<TRIPOS>BOND
    1     1     2  1
    2     1     5  1
    3     1     6  1
    4     1     7  1
    5     2     3  1
    6     2     8  1
    7     2     9  1
    8     3     4  1
    9     3    10  1
   10     3    11  1
   11     4    12  1
   12     4    13  1
   13     4    14  1

@<TRIPOS>MOLECULE
MOL
   14   13    0    0    0




@<TRIPOS>ATOM
   1   C1        2.6690    1.0520   -1.8840   c3 0 -0.06  0.0000
   2   C2        1.2420    0.8100   -1.4650   c3 0 -0.05  0.0000
   3   C3        1.1660    0.0560   -0.1540   c3 0 -0.05  0.0000
   4   C4       -0.2610   -0.1870    0.2650   c3 0 -0.06  0.0000
   5   H1        3.0894    0.1487   -2.3897   hc 0 0.023  0.0000
   6   H2        2.7316    1.9115   -2.5936   hc 0 0.023  0.0000
   7   H3        3.3012    1.2836   -0.9924   hc 0 0.023  0.0000
   8   H4        0.7070    1.7910   -1.3620   hc 0 0.026  0.0000
   9   H5        0.7090    0.2270   -2.2620   hc 0 0.026  0.0000
  10   H6        1.7010   -0.9250   -0.2580   hc 0 0.026  0.0000
  11   H7        1.6990    0.6390    0.6420   hc 0 0.026  0.0000
  12   H8       -0.2920   -0.7430    1.2320   hc 0 0.023  0.0000
  13   H9       -0.8030    0.7810    0.3960   hc 0 0.023  0.0000
  14  H10       -0.8010   -0.7880   -0.5060   hc 0 0.023  0.0000
@<TRIPOS>BOND
    1     1     2  1
    2     1     5  1
    3     1     6  1
    4     1     7  1
    5     2     3  1
    6     2     8  1
    7     2     9  1
    8     3     4  1
    9     3    10  1
   10     3    11  1
   11     4    12  1
   12     4    13  1
   13     4    14  1

@<TRIPOS>MOLECULE
MOL
   14   13    0    0    0




@<TRIPOS>ATOM
   1   C1        2.6690    1.0520   -1.8840   c3 0 -0.06  0.0000
   2   C2        1.2420    0.8100   -1.4650   c3 0 -0.05  0.0000
   3   C3        1.1660    0.0560   -0.1540   c3 0 -0.05  0.0000
   4   C4       -0.2610   -0.1870    0.2650   c3 0 -0.06  0.0000
   5   H1        3.0836    0.1552   -2.4057   hc 0 0.023  0.0000
   6   H2        2.7339    1.9228   -2.5795   hc 0 0.023  0.0000
   7   H3        3.3048    1.2658   -0.9905   hc 0 0.023  0.0000
   8   H4        0.7070    1.7910   -1.3620   hc 0 0.026  0.0000
   9   H5        0.7090    0.2270   -2.2620   hc 0 0.026  0.0000
  10   H6        1.7010   -0.9250   -0.2580   hc 0 0.026  0.0000
  11   H7        1.6990    0.6390    0.6420   hc 0 0.026  0.0000
  12   H8       -0.2920   -0.7430    1.2320   hc 0 0.023  0.0000
  13   H9       -0.8030    0.7810    0.3960   hc 0 0.023  0.0000
  14  H10       -0.8010   -0.7880   -0.5060   hc 0 0.023  0.0000
@<TRIPOS>BOND
    1     1     2  1
    2     1     5  1
    3     1     6  1
    4     1     7  1
    5     2     3  1
    6     2     8  1
    7     2     9  1
    8     3     4  1
    9     3    10  1
   10     3    11  1
   11     4    12  1
   12     4    13  1
   13     4    14  1

@<TRIPOS>MOLECULE
MOL
   14   13    0    0    0




@<TRIPOS>ATOM
   1   C1        2.6690    1.0520   -1.8840   c3 0 -0.06  0.0000
   2   C2        1.2420    0.8100   -1.4650   c3 0 -0.05  0.0000
   3   C3        1.1660    0.0560   -0.1540   c3 0 -0.05  0.0000
   4   C4       -0.2610   -0.1870    0.2650   c3 0 -0.06  0.0000
   5   H1        3.0778    0.1619   -2.4217   hc 0 0.023  0.0000
   6   H2        2.7362    1.9339   -2.5652   hc 0 0.023  0.0000
   7   H3        3.3083    1.2479   -0.9889   hc 0 0.023  0.0000
   8   H4        0.7070    1.7910   -1.3620   hc 0 0.026  0.0000
   9   H5        0.7090    0.2270   -2.2620   hc 0 0.026  0.0000
  10   H6        1.7010   -0.9250   -0.2580   hc 0 0.026  0.0000
  11   H7        1.6990    0.6390    0.6420   hc 0 0.026  0.0000
  12   H8       -0.2920   -0.7430    1.2320   hc 0 0.023  0.0000
  13   H9       -0.8030    0.7810    0.3960   hc 0 0.023  0.0000
  14  H10       -0.8010   -0.7880   -0.5060   hc 0 0.023  0.0000
@<TRIPOS>BOND
    1     1     2  1
    2     1     5  1
    3     1     6  1
    4     1     7  1
    5     2     3  1
    6     2     8  1
    7     2     9  1
    8     3     4  1
    9     3    10  1
   10     3    11  1
   11     4    12  1
   12     4    13  1
   13     4    14  1

@<TRIPOS>MOLECULE
MOL
   14   13    0    0    0




@<TRIPOS>ATOM
   1   C1        2.6690    1.0520   -1.8840   c3 0 -0.06  0.0000
   2   C2        1.2420    0.8100   -1.4650   c3 0 -0.05  0.0000
   3   C3        1.1660    0.0560   -0.1540   c3 0 -0.05  0.0000
   4   C4       -0.2610   -0.1870    0.2650   c3 0 -0.06  0.0000
   5   H1        3.0720    0.1690   -2.4375   hc 0 0.023  0.0000
   6   H2        2.7386    1.9447   -2.5507   hc 0 0.023  0.0000
   7   H3        3.3117    1.2300   -0.9876   hc 0 0.023  0.0000
   8   H4        0.7070    1.7910   -1.3620   hc 0 0.026  0.0000
   9   H5        0.7090    0.2270   -2.2620   hc 0 0.026  0.0000
  10   H6        1.7010   -0.9250   -0.2580   hc 0 0.026  0.0000
  11   H7        1.6990    0.6390    0.6420   hc 0 0.026  0.0000
  12   H8       -0.2920   -0.7430    1.2320   hc 0 0.023  0.0000
  13   H9       -0.8030    0.7810    0.3960   hc 0 0.023  0.0000
  14  H10       -0.8010   -0.7880   -0.5060   hc 0 0.023  0.0000
@<TRIPOS>BOND
    1     1     2  1
    2     1     5  1
    3     1     6  1
    4     1     7  1
    5     2     3  1
    6     2     8  1
    7     2     9  1
    8     3     4  1
    9     3    10  1
   10     3    11  1
   11     4    12  1
   12     4    13  1
   13     4    14  1

@<TRIPOS>MOLECULE
MOL
   14   13    0    0    0




@<TRIPOS>ATOM
   1   C1        2.6690    1.0520   -1.8840   c3 0 -0.06  0.0000
   2   C2        1.2420    0.8100   -1.4650   c3 0 -0.05  0.0000
   3   C3        1.1660    0.0560   -0.1540   c3 0 -0.05  0.0000
   4   C4       -0.2610   -0.1870    0.2650   c3 0 -0.06  0.0000
   5   H1        3.0661    0.1763   -2.4531   hc 0 0.023  0.0000
   6   H2        2.7411    1.9552   -2.5361   hc 0 0.023  0.0000
   7   H3        3.3150    1.2120   -0.9866   hc 0 0.023  0.0000
   8   H4        0.7070    1.7910   -1.3620   hc 0 0.026  0.0000
   9   H5        0.7090    0.2270   -2.2620   hc 0 0.026  0.0000
  10   H6        1.7010   -0.9250   -0.2580   hc 0 0.026  0.0000
  11   H7        1.6990    0.6390    0.6420   hc 0 0.026  0.0000
  12   H8       -0.2920   -0.7430    1.2320   hc 0 0.023  0.0000
  13   H9       -0.8030    0.7810    0.3960   hc 0 0.023  0.0000
  14  H10       -0.8010   -0.7880   -0.5060   hc 0 0.023  0.0000
@<TRIPOS>BOND
    1     1     2  1
    2     1     5  1
    3     1     6  1
    4     1     7  1
    5     2     3  1
    6     2     8  1
    7     2     9  1
    8     3     4  1
    9     3    10  1
   10     3    11  1
   11     4    12  1
   12     4    13  1
   13     4    14  1

@<TRIPOS>MOLECULE
MOL
   14   13    0    0    0




@<TRIPOS>ATOM
   1   C1        2.6690    1.0520   -1.8840   c3 0 -0.06  0.0000
   2   C2        1.2420    0.8100   -1.4650   c3 0 -0.05  0.0000
   3   C3        1.1660    0.0560   -0.1540   c3 0 -0.05  0.0000
   4   C4       -0.2610   -0.1870    0.2650   c3 0 -0.06  0.0000
   5   H1        3.0603    0.1839   -2.4686   hc 0 0.023  0.0000
   6   H2        2.7437    1.9655   -2.5213   hc 0 0.023  0.0000
   7   H3        3.3183    1.1940   -0.9859   hc 0 0.023  0.0000
   8   H4        0.7070    1.7910   -1.3620   hc 0 0.026  0.0000
   9   H5        0.7090    0.2270   -2.2620   hc 0 0.026  0.0000
  10   H6        1.7010   -0.9250   -0.2580   hc 0 0.026  0.0000
  11   H7        1.6990    0.6390    0.6420   hc 0 0.026  0.0000
  12   H8       -0.2920   -0.7430    1.2320   hc 0 0.023  0.0000
  13   H9       -0.8030    0.7810    0.3960   hc 0 0.023  0.0000
  14  H10       -0.8010   -0.7880   -0.5060   hc 0 0.023  0.0000
@<TRIPOS>BOND
    1     1     2  1
    2     1     5  1
    3     1     6  1
    4     1     7  1
    5     2     3  1
    6     2     8  1
    7     2     9  1
    8     3     4  1
    9     3    10  1
   10     3    11  1
   11     4    12  1
   12     4    13  1
   13     4    14  1

@<TRIPOS>MOLECULE
MOL
   14   13    0    0    0




@<TRIPOS>ATOM
   1   C1        2.6690    1.0520   -1.8840   c3 0 -0.06  0.0000
   2   C2        1.2420    0.8100   -1.4650   c3 0 -0.05  0.0000
   3   C3        1.1660    0.0560   -0.1540   c3 0 -0.05  0.0000
   4   C4       -0.2610   -0.1870    0.2650   c3 0 -0.06  0.0000
   5   H1        3.0544    0.1918   -2.4840   hc 0 0.023  0.0000
   6   H2        2.7464    1.9756   -2.5063   hc 0 0.023  0.0000
   7   H3        3.3215    1.1760   -0.9856   hc 0 0.023  0.0000
   8   H4        0.7070    1.7910   -1.3620   hc 0 0.026  0.0000
   9   H5        0.7090    0.2270   -2.2620   hc 0 0.026  0.0000
  10   H6        1.7010   -0.9250   -0.2580   hc 0 0.026  0.0000
  11   H7        1.6990    0.6390    0.6420   hc 0 0.026  0.0000
  12   H8       -0.2920   -0.7430    1.2320   hc 0 0.023  0.0000
  13   H9       -0.8030    0.7810    0.3960   hc 0 0.023  0.0000
  14  H10       -0.8010   -0.7880   -0.5060   hc 0 0.023  0.0000
@<TRIPOS>BOND
    1     1     2  1
    2     1     5  1
    3     1     6  1
    4     1     7  1
    5     2     3  1
    6     2     8  1
    7     2     9  1
    8     3     4  1
    9     3    10  1
   10     3    11  1
   11     4    12  1
   12     4    13  1
   13     4    14  1

@<TRIPOS>MOLECULE
MOL
   14   13    0    0    0




@<TRIPOS>ATOM
   1   C1        2.6690    1.0520   -1.8840   c3 0 -0.06  0.0000
   2   C2        1.2420    0.8100   -1.4650   c3 0 -0.05  0.0000
   3   C3        1.1660    0.0560   -0.1540   c3 0 -0.05  0.0000
   4   C4       -0.2610   -0.1870    0.2650   c3 0 -0.06  0.0000
   5   H1        3.0485    0.2000   -2.4992   hc 0 0.023  0.0000
   6   H2        2.7492    1.9854   -2.4912   hc 0 0.023  0.0000
   7   H3        3.3245    1.1580   -0.9855   hc 0 0.023  0.0000
   8   H4        0.7070    1.7910   -1.3620   hc 0 0.026  0.0000
   9   H5        0.7090    0.2270   -2.2620   hc 0 0.026  0.0000
  10   H6        1.7010   -0.9250   -0.2580   hc 0 0.026  0.0000
  11   H7        1.6990    0.6390    0.6420   hc 0 0.026  0.0000
  12   H8       -0.2920   -0.7430    1.2320   hc 0 0.023  0.0000
  13   H9       -0.8030    0.7810    0.3960   hc 0 0.023  0.0000
  14  H10       -0.8010   -0.7880   -0.5060   hc 0 0.023  0.0000
@<TRIPOS>BOND
    1     1     2  1
    2     1     5  1
    3     1     6  1
    4     1     7  1
    5     2     3  1
    6     2     8  1
    7     2     9  1
    8     3     4  1
    9     3    10  1
   10     3    11  1
   11     4    12  1
   12     4    13  1
   13     4    14  1

@<TRIPOS>MOLECULE
MOL
   14   13    0    0    0




@<TRIPOS>ATOM
   1   C1        2.6690    1.0520   -1.8840   c3 0 -0.06  0.0000
   2   C2        1.2420    0.8100   -1.4650   c3 0 -0.05  0.0000
   3   C3        1.1660    0.0560   -0.1540   c3 0 -0.05  0.0000
   4   C4       -0.2610   -0.1870    0.2650   c3 0 -0.06  0.0000
   5   H1        3.0427    0.2085   -2.5143   hc 0 0.023  0.0000
   6   H2        2.7521    1.9949   -2.4759   hc 0 0.023  0.0000
   7   H3        3.3275    1.1400   -0.9857   hc 0 0.023  0.0000
   8   H4        0.7070    1.7910   -1.3620   hc 0 0.026  0.0000
   9   H5        0.7090    0.2270   -2.2620   hc 0 0.026  0.0000
  10   H6        1.7010   -0.9250   -0.2580   hc 0 0.026  0.0000
  11   H7        1.6990    0.6390    0.6420   hc 0 0.026  0.0000
  12   H8       -0.2920   -0.7430    1.2320   hc 0 0.023  0.0000
  13   H9       -0.8030    0.7810    0.3960   hc 0 0.023  0.0000
  14  H10       -0.8010   -0.7880   -0.5060   hc 0 0.023  0.0000
@<TRIPOS>BOND
    1     1     2  1
    2     1     5  1
    3     1     6  1
    4     1     7  1
    5     2     3  1
    6     2     8  1
    7     2     9  1
    8     3     4  1
    9     3    10  1
   10     3    11  1
   11     4    12  1
   12     4    13  1
   13     4    14  1

@<TRIPOS>MOLECULE
MOL
   14   13    0    0    0




@<TRIPOS>ATOM
   1   C1        2.6690    1.0520   -1.8840   c3 0 -0.06  0.0000
   2   C2        1.2420    0.8100   -1.4650   c3 0 -0.05  0.0000
   3   C3        1.1660    0.0560   -0.1540   c3 0 -0.05  0.0000
   4   C4       -0.2610   -0.1870    0.2650   c3 0 -0.06  0.0000
   5   H1        3.0368    0.2172   -2.5292   hc 0 0.023  0.0000
   6   H2        2.7550    2.0041   -2.4605   hc 0 0.023  0.0000
   7   H3        3.3304    1.1219   -0.9863   hc 0 0.023  0.0000
   8   H4        0.7070    1.7910   -1.3620   hc 0 0.026  0.0000
   9   H5        0.7090    0.2270   -2.2620   hc 0 0.026  0.0000
  10   H6        1.7010   -0.9250   -0.2580   hc 0 0.026  0.0000
  11   H7        1.6990    0.6390    0.6420   hc 0 0.026  0.0000
  12   H8       -0.2920   -0.7430    1.2320   hc 0 0.023  0.0000
  13   H9       -0.8030    0.7810    0.3960   hc 0 0.023  0.0000
  14  H10       -0.8010   -0.7880   -0.5060   hc 0 0.023  0.0000
@<TRIPOS>BOND
    1     1     2  1
    2     1     5  1
    3     1     6  1
    4     1     7  1
    5     2     3  1
    6     2     8  1
    7     2     9  1
    8     3     4  1
    9     3    10  1
   10     3    11  1
   11     4    12  1
   12     4    13  1
   13     4    14  1

@<TRIPOS>MOLECULE
MOL
   14   13    0    0    0




@<TRIPOS>ATOM
   1   C1        2.6690    1.0520   -1.8840   c3 0 -0.06  0.0000
   2   C2        1.2420    0.8100   -1.4650   c3 0 -0.05  0.0000
   3   C3        1.1660    0.0560   -0.1540   c3 0 -0.05  0.0000
   4   C4       -0.2610   -0.1870    0.2650   c3 0 -0.06  0.0000
   5   H1        3.0310    0.2262   -2.5439   hc 0 0.023  0.0000
   6   H2        2.7581    2.0131   -2.4449   hc 0 0.023  0.0000
   7   H3        3.3332    1.1039   -0.9871   hc 0 0.023  0.0000
   8   H4        0.7070    1.7910   -1.3620   hc 0 0.026  0.0000
   9   H5        0.7090    0.2270   -2.2620   hc 0 0.026  0.0000
  10   H6        1.7010   -0.9250   -0.2580   hc 0 0.026  0.0000
  11   H7        1.6990    0.6390    0.6420   hc 0 0.026  0.0000
  12   H8       -0.2920   -0.7430    1.2320   hc 0 0.023  0.0000
  13   H9       -0.8030    0.7810    0.3960   hc 0 0.023  0.0000
  14  H10       -0.8010   -0.7880   -0.5060   hc 0 0.023  0.0000
@<TRIPOS>BOND
    1     1     2  1
    2     1     5  1
    3     1     6  1
    4     1     7  1
    5     2     3  1
    6     2     8  1
    7     2     9  1
    8     3     4  1
    9     3    10  1
   10     3    11  1
   11     4    12  1
   12     4    13  1
   13     4    14  1

@<TRIPOS>MOLECULE
MOL
   14   13    0    0    0




@<TRIPOS>ATOM
   1   C1        2.6690    1.0520   -1.8840   c3 0 -0.06  0.0000
   2   C2        1.2420    0.8100   -1.4650   c3 0 -0.05  0.0000
   3   C3        1.1660    0.0560   -0.1540   c3 0 -0.05  0.0000
   4   C4       -0.2610   -0.1870    0.2650   c3 0 -0.06  0.0000
   5   H1        3.0251    0.2355   -2.5585   hc 0 0.023  0.0000
   6   H2        2.7612    2.0218   -2.4292   hc 0 0.023  0.0000
   7   H3        3.3359    1.0858   -0.9883   hc 0 0.023  0.0000
   8   H4        0.7070    1.7910   -1.3620   hc 0 0.026  0.0000
   9   H5        0.7090    0.2270   -2.2620   hc 0 0.026  0.0000
  10   H6        1.7010   -0.9250   -0.2580   hc 0 0.026  0.0000
  11   H7        1.6990    0.6390    0.6420   hc 0 0.026  0.0000
  12   H8       -0.2920   -0.7430    1.2320   hc 0 0.023  0.0000
  13   H9       -0.8030    0.7810    0.3960   hc 0 0.023  0.0000
  14  H10       -0.8010   -0.7880   -0.5060   hc 0 0.023  0.0000
@<TRIPOS>BOND
    1     1     2  1
    2     1     5  1
    3     1     6  1
    4     1     7  1
    5     2     3  1
    6     2     8  1
    7     2     9  1
    8     3     4  1
    9     3    10  1
   10     3    11  1
   11     4    12  1
   12     4    13  1
   13     4    14  1

@<TRIPOS>MOLECULE
MOL
   14   13    0    0    0




@<TRIPOS>ATOM
   1   C1        2.6690    1.0520   -1.8840   c3 0 -0.06  0.0000
   2   C2        1.2420    0.8100   -1.4650   c3 0 -0.05  0.0000
   3   C3        1.1660    0.0560   -0.1540   c3 0 -0.05  0.0000
   4   C4       -0.2610   -0.1870    0.2650   c3 0 -0.06  0.0000
   5   H1        3.0193    0.2451   -2.5729   hc 0 0.023  0.0000
   6   H2        2.7644    2.0302   -2.4134   hc 0 0.023  0.0000
   7   H3        3.3386    1.0678   -0.9898   hc 0 0.023  0.0000
   8   H4        0.7070    1.7910   -1.3620   hc 0 0.026  0.0000
   9   H5        0.7090    0.2270   -2.2620   hc 0 0.026  0.0000
  10   H6        1.7010   -0.9250   -0.2580   hc 0 0.026  0.0000
  11   H7        1.6990    0.6390    0.6420   hc 0 0.026  0.0000
  12   H8       -0.2920   -0.7430    1.2320   hc 0 0.023  0.0000
  13   H9       -0.8030    0.7810    0.3960   hc 0 0.023  0.0000
  14  H10       -0.8010   -0.7880   -0.5060   hc 0 0.023  0.0000
@<TRIPOS>BOND
    1     1     2  1
    2     1     5  1
    3     1     6  1
    4     1     7  1
    5     2     3  1
    6     2     8  1
    7     2     9  1
    8     3     4  1
    9     3    10  1
   10     3    11  1
   11     4    12  1
   12     4    13  1
   13     4    14  1

@<TRIPOS>MOLECULE
MOL
   14   13    0    0    0




@<TRIPOS>ATOM
   1   C1        2.6690    1.0520   -1.8840   c3 0 -0.06  0.0000
   2   C2        1.2420    0.8100   -1.4650   c3 0 -0.05  0.0000
   3   C3        1.1660    0.0560   -0.1540   c3 0 -0.05  0.0000
   4   C4       -0.2610   -0.1870    0.2650   c3 0 -0.06  0.0000
   5   H1        3.0134    0.2549   -2.5872   hc 0 0.023  0.0000
   6   H2        2.7677    2.0384   -2.3974   hc 0 0.023  0.0000
   7   H3        3.3411    1.0498   -0.9915   hc 0 0.023  0.0000
   8   H4        0.7070    1.7910   -1.3620   hc 0 0.026  0.0000
   9   H5        0.7090    0.2270   -2.2620   hc 0 0.026  0.0000
  10   H6        1.7010   -0.9250   -0.2580   hc 0 0.026  0.0000
  11   H7        1.6990    0.6390    0.6420   hc 0 0.026  0.0000
  12   H8       -0.2920   -0.7430    1.2320   hc 0 0.023  0.0000
  13   H9       -0.8030    0.7810    0.3960   hc 0 0.023  0.0000
  14  H10       -0.8010   -0.7880   -0.5060   hc 0 0.023  0.0000
@<TRIPOS>BOND
    1     1     2  1
    2     1     5  1
    3     1     6  1
    4     1     7  1
    5     2     3  1
    6     2     8  1
    7     2     9  1
    8     3     4  1
    9     3    10  1
   10     3    11  1
   11     4    12  1
   12     4    13  1
   13     4    14  1

@<TRIPOS>MOLECULE
MOL
   14   13    0    0    0




@<TRIPOS>ATOM
   1   C1        2.6690    1.0520   -1.8840   c3 0 -0.06  0.0000
   2   C2        1.2420    0.8100   -1.4650   c3 0 -0.05  0.0000
   3   C3        1.1660    0.0560   -0.1540   c3 0 -0.05  0.0000
   4   C4       -0.2610   -0.1870    0.2650   c3 0 -0.06  0.0000
   5   H1        3.0076    0.2650   -2.6012   hc 0 0.023  0.0000
   6   H2        2.7711    2.0462   -2.3813   hc 0 0.023  0.0000
   7   H3        3.3436    1.0318   -0.9936   hc 0 0.023  0.0000
   8   H4        0.7070    1.7910   -1.3620   hc 0 0.026  0.0000
   9   H5        0.7090    0.2270   -2.2620   hc 0 0.026  0.0000
  10   H6        1.7010   -0.9250   -0.2580   hc 0 0.026  0.0000
  11   H7        1.6990    0.6390    0.6420   hc 0 0.026  0.0000
  12   H8       -0.2920   -0.7430    1.2320   hc 0 0.023  0.0000
  13   H9       -0.8030    0.7810    0.3960   hc 0 0.023  0.0000
  14  H10       -0.8010   -0.7880   -0.5060   hc 0 0.023  0.0000
@<TRIPOS>BOND
    1     1     2  1
    2     1     5  1
    3     1     6  1
    4     1     7  1
    5     2     3  1
    6     2     8  1
    7     2     9  1
    8     3     4  1
    9     3    10  1
   10     3    11  1
   11     4    12  1
   12     4    13  1
   13     4    14  1

@<TRIPOS>MOLECULE
MOL
   14   13    0    0    0




@<TRIPOS>ATOM
   1   C1        2.6690    1.0520   -1.8840   c3 0 -0.06  0.0000
   2   C2        1.2420    0.8100   -1.4650   c3 0 -0.05  0.0000
   3   C3        1.1660    0.0560   -0.1540   c3 0 -0.05  0.0000
   4   C4       -0.2610   -0.1870    0.2650   c3 0 -0.06  0.0000
   5   H1        3.0018    0.2753   -2.6151   hc 0 0.023  0.0000
   6   H2        2.7746    2.0538   -2.3651   hc 0 0.023  0.0000
   7   H3        3.3459    1.0138   -0.9960   hc 0 0.023  0.0000
   8   H4        0.7070    1.7910   -1.3620   hc 0 0.026  0.0000
   9   H5        0.7090    0.2270   -2.2620   hc 0 0.026  0.0000
  10   H6        1.7010   -0.9250   -0.2580   hc 0 0.026  0.0000
  11   H7        1.6990    0.6390    0.6420   hc 0 0.026  0.0000
  12   H8       -0.2920   -0.7430    1.2320   hc 0 0.023  0.0000
  13   H9       -0.8030    0.7810    0.3960   hc 0 0.023  0.0000
  14  H10       -0.8010   -0.7880   -0.5060   hc 0 0.023  0.0000
@<TRIPOS>BOND
    1     1     2  1
    2     1     5  1
    3     1     6  1
    4     1     7  1
    5     2     3  1
    6     2     8  1
    7     2     9  1
    8     3     4  1
    9     3    10  1
   10     3    11  1
   11     4    12  1
   12     4    13  1
   13     4    14  1

@<TRIPOS>MOLECULE
MOL
   14   13    0    0    0




@<TRIPOS>ATOM
   1   C1        2.6690    1.0520   -1.8840   c3 0 -0.06  0.0000
   2   C2        1.2420    0.8100   -1.4650   c3 0 -0.05  0.0000
   3   C3        1.1660    0.0560   -0.1540   c3 0 -0.05  0.0000
   4   C4       -0.2610   -0.1870    0.2650   c3 0 -0.06  0.0000
   5   H1        2.9959    0.2859   -2.6288   hc 0 0.023  0.0000
   6   H2        2.7782    2.0611   -2.3488   hc 0 0.023  0.0000
   7   H3        3.3482    0.9958   -0.9987   hc 0 0.023  0.0000
   8   H4        0.7070    1.7910   -1.3620   hc 0 0.026  0.0000
   9   H5        0.7090    0.2270   -2.2620   hc 0 0.026  0.0000
  10   H6        1.7010   -0.9250   -0.2580   hc 0 0.026  0.0000
  11   H7        1.6990    0.6390    0.6420   hc 0 0.026  0.0000
  12   H8       -0.2920   -0.7430    1.2320   hc 0 0.023  0.0000
  13   H9       -0.8030    0.7810    0.3960   hc 0 0.023  0.0000
  14  H10       -0.8010   -0.7880   -0.5060   hc 0 0.023  0.0000
@<TRIPOS>BOND
    1     1     2  1
    2     1     5  1
    3     1     6  1
    4     1     7  1
    5     2     3  1
    6     2     8  1
    7     2     9  1
    8     3     4  1
    9     3    10  1
   10     3    11  1
   11     4    12  1
   12     4    13  1
   13     4    14  1

@<TRIPOS>MOLECULE
MOL
   14   13    0    0    0




@<TRIPOS>ATOM
   1   C1        2.6690    1.0520   -1.8840   c3 0 -0.06  0.0000
   2   C2        1.2420    0.8100   -1.4650   c3 0 -0.05  0.0000
   3   C3        1.1660    0.0560   -0.1540   c3 0 -0.05  0.0000
   4   C4       -0.2610   -0.1870    0.2650   c3 0 -0.06  0.0000
   5   H1        2.9901    0.2968   -2.6422   hc 0 0.023  0.0000
   6   H2        2.7818    2.0681   -2.3324   hc 0 0.023  0.0000
   7   H3        3.3503    0.9779   -1.0016   hc 0 0.023  0.0000
   8   H4        0.7070    1.7910   -1.3620   hc 0 0.026  0.0000
   9   H5        0.7090    0.2270   -2.2620   hc 0 0.026  0.0000
  10   H6        1.7010   -0.9250   -0.2580   hc 0 0.026  0.0000
  11   H7        1.6990    0.6390    0.6420   hc 0 0.026  0.0000
  12   H8       -0.2920   -0.7430    1.2320   hc 0 0.023  0.0000
  13   H9       -0.8030    0.7810    0.3960   hc 0 0.023  0.0000
  14  H10       -0.8010   -0.7880   -0.5060   hc 0 0.023  0.0000
@<TRIPOS>BOND
    1     1     2  1
    2     1     5  1
    3     1     6  1
    4     1     7  1
    5     2     3  1
    6     2     8  1
    7     2     9  1
    8     3     4  1
    9     3    10  1
   10     3    11  1
   11     4    12  1
   12     4    13  1
   13     4    14  1

@<TRIPOS>MOLECULE
MOL
   14   13    0    0    0




@<TRIPOS>ATOM
   1   C1        2.6690    1.0520   -1.8840   c3 0 -0.06  0.0000
   2   C2        1.2420    0.8100   -1.4650   c3 0 -0.05  0.0000
   3   C3        1.1660    0.0560   -0.1540   c3 0 -0.05  0.0000
   4   C4       -0.2610   -0.1870    0.2650   c3 0 -0.06  0.0000
   5   H1        2.9844    0.3079   -2.6555   hc 0 0.023  0.0000
   6   H2        2.7855    2.0748   -2.3158   hc 0 0.023  0.0000
   7   H3        3.3524    0.9601   -1.0049   hc 0 0.023  0.0000
   8   H4        0.7070    1.7910   -1.3620   hc 0 0.026  0.0000
   9   H5        0.7090    0.2270   -2.2620   hc 0 0.026  0.0000
  10   H6        1.7010   -0.9250   -0.2580   hc 0 0.026  0.0000
  11   H7        1.6990    0.6390    0.6420   hc 0 0.026  0.0000
  12   H8       -0.2920   -0.7430    1.2320   hc 0 0.023  0.0000
  13   H9       -0.8030    0.7810    0.3960   hc 0 0.023  0.0000
  14  H10       -0.8010   -0.7880   -0.5060   hc 0 0.023  0.0000
@<TRIPOS>BOND
    1     1     2  1
    2     1     5  1
    3     1     6  1
    4     1     7  1
    5     2     3  1
    6     2     8  1
    7     2     9  1
    8     3     4  1
    9     3    10  1
   10     3    11  1
   11     4    12  1
   12     4    13  1
   13     4    14  1

@<TRIPOS>MOLECULE
MOL
   14   13    0    0    0




@<TRIPOS>ATOM
   1   C1        2.6690    1.0520   -1.8840   c3 0 -0.06  0.0000
   2   C2        1.2420    0.8100   -1.4650   c3 0 -0.05  0.0000
   3   C3        1.1660    0.0560   -0.1540   c3 0 -0.05  0.0000
   4   C4       -0.2610   -0.1870    0.2650   c3 0 -0.06  0.0000
   5   H1        2.9786    0.3192   -2.6686   hc 0 0.023  0.0000
   6   H2        2.7893    2.0813   -2.2992   hc 0 0.023  0.0000
   7   H3        3.3544    0.9422   -1.0085   hc 0 0.023  0.0000
   8   H4        0.7070    1.7910   -1.3620   hc 0 0.026  0.0000
   9   H5        0.7090    0.2270   -2.2620   hc 0 0.026  0.0000
  10   H6        1.7010   -0.9250   -0.2580   hc 0 0.026  0.0000
  11   H7        1.6990    0.6390    0.6420   hc 0 0.026  0.0000
  12   H8       -0.2920   -0.7430    1.2320   hc 0 0.023  0.0000
  13   H9       -0.8030    0.7810    0.3960   hc 0 0.023  0.0000
  14  H10       -0.8010   -0.7880   -0.5060   hc 0 0.023  0.0000
@<TRIPOS>BOND
    1     1     2  1
    2     1     5  1
    3     1     6  1
    4     1     7  1
    5     2     3  1
    6     2     8  1
    7     2     9  1
    8     3     4  1
    9     3    10  1
   10     3    11  1
   11     4    12  1
   12     4    13  1
   13     4    14  1

@<TRIPOS>MOLECULE
MOL
   14   13    0    0    0




@<TRIPOS>ATOM
   1   C1        2.6690    1.0520   -1.8840   c3 0 -0.06  0.0000
   2   C2        1.2420    0.8100   -1.4650   c3 0 -0.05  0.0000
   3   C3        1.1660    0.0560   -0.1540   c3 0 -0.05  0.0000
   4   C4       -0.2610   -0.1870    0.2650   c3 0 -0.06  0.0000
   5   H1        2.9729    0.3308   -2.6815   hc 0 0.023  0.0000
   6   H2        2.7932    2.0874   -2.2825   hc 0 0.023  0.0000
   7   H3        3.3562    0.9245   -1.0124   hc 0 0.023  0.0000
   8   H4        0.7070    1.7910   -1.3620   hc 0 0.026  0.0000
   9   H5        0.7090    0.2270   -2.2620   hc 0 0.026  0.0000
  10   H6        1.7010   -0.9250   -0.2580   hc 0 0.026  0.0000
  11   H7        1.6990    0.6390    0.6420   hc 0 0.026  0.0000
  12   H8       -0.2920   -0.7430    1.2320   hc 0 0.023  0.0000
  13   H9       -0.8030    0.7810    0.3960   hc 0 0.023  0.0000
  14  H10       -0.8010   -0.7880   -0.5060   hc 0 0.023  0.0000
@<TRIPOS>BOND
    1     1     2  1
    2     1     5  1
    3     1     6  1
    4     1     7  1
    5     2     3  1
    6     2     8  1
    7     2     9  1
    8     3     4  1
    9     3    10  1
   10     3    11  1
   11     4    12  1
   12     4    13  1
   13     4    14  1

@<TRIPOS>MOLECULE
MOL
   14   13    0    0    0




@<TRIPOS>ATOM
   1   C1        2.6690    1.0520   -1.8840   c3 0 -0.06  0.0000
   2   C2        1.2420    0.8100   -1.4650   c3 0 -0.05  0.0000
   3   C3        1.1660    0.0560   -0.1540   c3 0 -0.05  0.0000
   4   C4       -0.2610   -0.1870    0.2650   c3 0 -0.06  0.0000
   5   H1        2.9671    0.3426   -2.6941   hc 0 0.023  0.0000
   6   H2        2.7971    2.0932   -2.2657   hc 0 0.023  0.0000
   7   H3        3.3580    0.9067   -1.0166   hc 0 0.023  0.0000
   8   H4        0.7070    1.7910   -1.3620   hc 0 0.026  0.0000
   9   H5        0.7090    0.2270   -2.2620   hc 0 0.026  0.0000
  10   H6        1.7010   -0.9250   -0.2580   hc 0 0.026  0.0000
  11   H7        1.6990    0.6390    0.6420   hc 0 0.026  0.0000
  12   H8       -0.2920   -0.7430    1.2320   hc 0 0.023  0.0000
  13   H9       -0.8030    0.7810    0.3960   hc 0 0.023  0.0000
  14  H10       -0.8010   -0.7880   -0.5060   hc 0 0.023  0.0000
@<TRIPOS>BOND
    1     1     2  1
    2     1     5  1
    3     1     6  1
    4     1     7  1
    5     2     3  1
    6     2     8  1
    7     2     9  1
    8     3     4  1
    9     3    10  1
   10     3    11  1
   11     4    12  1
   12     4    13  1
   13     4    14  1

@<TRIPOS>MOLECULE
MOL
   14   13    0    0    0




@<TRIPOS>ATOM
   1   C1        2.6690    1.0520   -1.8840   c3 0 -0.06  0.0000
   2   C2        1.2420    0.8100   -1.4650   c3 0 -0.05  0.0000
   3   C3        1.1660    0.0560   -0.1540   c3 0 -0.05  0.0000
   4   C4       -0.2610   -0.1870    0.2650   c3 0 -0.06  0.0000
   5   H1        2.9614    0.3547   -2.7066   hc 0 0.023  0.0000
   6   H2        2.8011    2.0988   -2.2488   hc 0 0.023  0.0000
   7   H3        3.3597    0.8891   -1.0211   hc 0 0.023  0.0000
   8   H4        0.7070    1.7910   -1.3620   hc 0 0.026  0.0000
   9   H5        0.7090    0.2270   -2.2620   hc 0 0.026  0.0000
  10   H6        1.7010   -0.9250   -0.2580   hc 0 0.026  0.0000
  11   H7        1.6990    0.6390    0.6420   hc 0 0.026  0.0000
  12   H8       -0.2920   -0.7430    1.2320   hc 0 0.023  0.0000
  13   H9       -0.8030    0.7810    0.3960   hc 0 0.023  0.0000
  14  H10       -0.8010   -0.7880   -0.5060   hc 0 0.023  0.0000
@<TRIPOS>BOND
    1     1     2  1
    2     1     5  1
    3     1     6  1
    4     1     7  1
    5     2     3  1
    6     2     8  1
    7     2     9  1
    8     3     4  1
    9     3    10  1
   10     3    11  1
   11     4    12  1
   12     4    13  1
   13     4    14  1

@<TRIPOS>MOLECULE
MOL
   14   13    0    0    0




@<TRIPOS>ATOM
   1   C1        2.6690    1.0520   -1.8840   c3 0 -0.06  0.0000
   2   C2        1.2420    0.8100   -1.4650   c3 0 -0.05  0.0000
   3   C3        1.1660    0.0560   -0.1540   c3 0 -0.05  0.0000
   4   C4       -0.2610   -0.1870    0.2650   c3 0 -0.06  0.0000
   5   H1        2.9558    0.3670   -2.7188   hc 0 0.023  0.0000
   6   H2        2.8052    2.1040   -2.2318   hc 0 0.023  0.0000
   7   H3        3.3613    0.8715   -1.0258   hc 0 0.023  0.0000
   8   H4        0.7070    1.7910   -1.3620   hc 0 0.026  0.0000
   9   H5        0.7090    0.2270   -2.2620   hc 0 0.026  0.0000
  10   H6        1.7010   -0.9250   -0.2580   hc 0 0.026  0.0000
  11   H7        1.6990    0.6390    0.6420   hc 0 0.026  0.0000
  12   H8       -0.2920   -0.7430    1.2320   hc 0 0.023  0.0000
  13   H9       -0.8030    0.7810    0.3960   hc 0 0.023  0.0000
  14  H10       -0.8010   -0.7880   -0.5060   hc 0 0.023  0.0000
@<TRIPOS>BOND
    1     1     2  1
    2     1     5  1
    3     1     6  1
    4     1     7  1
    5     2     3  1
    6     2     8  1
    7     2     9  1
    8     3     4  1
    9     3    10  1
   10     3    11  1
   11     4    12  1
   12     4    13  1
   13     4    14  1

@<TRIPOS>MOLECULE
MOL
   14   13    0    0    0




@<TRIPOS>ATOM
   1   C1        2.6690    1.0520   -1.8840   c3 0 -0.06  0.0000
   2   C2        1.2420    0.8100   -1.4650   c3 0 -0.05  0.0000
   3   C3        1.1660    0.0560   -0.1540   c3 0 -0.05  0.0000
   4   C4       -0.2610   -0.1870    0.2650   c3 0 -0.06  0.0000
   5   H1        2.9501    0.3795   -2.7309   hc 0 0.023  0.0000
   6   H2        2.8094    2.1090   -2.2148   hc 0 0.023  0.0000
   7   H3        3.3627    0.8540   -1.0309   hc 0 0.023  0.0000
   8   H4        0.7070    1.7910   -1.3620   hc 0 0.026  0.0000
   9   H5        0.7090    0.2270   -2.2620   hc 0 0.026  0.0000
  10   H6        1.7010   -0.9250   -0.2580   hc 0 0.026  0.0000
  11   H7        1.6990    0.6390    0.6420   hc 0 0.026  0.0000
  12   H8       -0.2920   -0.7430    1.2320   hc 0 0.023  0.0000
  13   H9       -0.8030    0.7810    0.3960   hc 0 0.023  0.0000
  14  H10       -0.8010   -0.7880   -0.5060   hc 0 0.023  0.0000
@<TRIPOS>BOND
    1     1     2  1
    2     1     5  1
    3     1     6  1
    4     1     7  1
    5     2     3  1
    6     2     8  1
    7     2     9  1
    8     3     4  1
    9     3    10  1
   10     3    11  1
   11     4    12  1
   12     4    13  1
   13     4    14  1

@<TRIPOS>MOLECULE
MOL
   14   13    0    0    0




@<TRIPOS>ATOM
   1   C1        2.6690    1.0520   -1.8840   c3 0 -0.06  0.0000
   2   C2        1.2420    0.8100   -1.4650   c3 0 -0.05  0.0000
   3   C3        1.1660    0.0560   -0.1540   c3 0 -0.05  0.0000
   4   C4       -0.2610   -0.1870    0.2650   c3 0 -0.06  0.0000
   5   H1        2.9445    0.3922   -2.7426   hc 0 0.023  0.0000
   6   H2        2.8136    2.1136   -2.1977   hc 0 0.023  0.0000
   7   H3        3.3641    0.8366   -1.0363   hc 0 0.023  0.0000
   8   H4        0.7070    1.7910   -1.3620   hc 0 0.026  0.0000
   9   H5        0.7090    0.2270   -2.2620   hc 0 0.026  0.0000
  10   H6        1.7010   -0.9250   -0.2580   hc 0 0.026  0.0000
  11   H7        1.6990    0.6390    0.6420   hc 0 0.026  0.0000
  12   H8       -0.2920   -0.7430    1.2320   hc 0 0.023  0.0000
  13   H9       -0.8030    0.7810    0.3960   hc 0 0.023  0.0000
  14  H10       -0.8010   -0.7880   -0.5060   hc 0 0.023  0.0000
@<TRIPOS>BOND
    1     1     2  1
    2     1     5  1
    3     1     6  1
    4     1     7  1
    5     2     3  1
    6     2     8  1
    7     2     9  1
    8     3     4  1
    9     3    10  1
   10     3    11  1
   11     4    12  1
   12     4    13  1
   13     4    14  1

@<TRIPOS>MOLECULE
MOL
   14   13    0    0    0




@<TRIPOS>ATOM
   1   C1        2.6690    1.0520   -1.8840   c3 0 -0.06  0.0000
   2   C2        1.2420    0.8100   -1.4650   c3 0 -0.05  0.0000
   3   C3        1.1660    0.0560   -0.1540   c3 0 -0.05  0.0000
   4   C4       -0.2610   -0.1870    0.2650   c3 0 -0.06  0.0000
   5   H1        2.9389    0.4052   -2.7542   hc 0 0.023  0.0000
   6   H2        2.8179    2.1179   -2.1805   hc 0 0.023  0.0000
   7   H3        3.3654    0.8192   -1.0419   hc 0 0.023  0.0000
   8   H4        0.7070    1.7910   -1.3620   hc 0 0.026  0.0000
   9   H5        0.7090    0.2270   -2.2620   hc 0 0.026  0.0000
  10   H6        1.7010   -0.9250   -0.2580   hc 0 0.026  0.0000
  11   H7        1.6990    0.6390    0.6420   hc 0 0.026  0.0000
  12   H8       -0.2920   -0.7430    1.2320   hc 0 0.023  0.0000
  13   H9       -0.8030    0.7810    0.3960   hc 0 0.023  0.0000
  14  H10       -0.8010   -0.7880   -0.5060   hc 0 0.023  0.0000
@<TRIPOS>BOND
    1     1     2  1
    2     1     5  1
    3     1     6  1
    4     1     7  1
    5     2     3  1
    6     2     8  1
    7     2     9  1
    8     3     4  1
    9     3    10  1
   10     3    11  1
   11     4    12  1
   12     4    13  1
   13     4    14  1

@<TRIPOS>MOLECULE
MOL
   14   13    0    0    0




@<TRIPOS>ATOM
   1   C1        2.6690    1.0520   -1.8840   c3 0 -0.06  0.0000
   2   C2        1.2420    0.8100   -1.4650   c3 0 -0.05  0.0000
   3   C3        1.1660    0.0560   -0.1540   c3 0 -0.05  0.0000
   4   C4       -0.2610   -0.1870    0.2650   c3 0 -0.06  0.0000
   5   H1        2.9333    0.4184   -2.7655   hc 0 0.023  0.0000
   6   H2        2.8223    2.1219   -2.1633   hc 0 0.023  0.0000
   7   H3        3.3666    0.8020   -1.0479   hc 0 0.023  0.0000
   8   H4        0.7070    1.7910   -1.3620   hc 0 0.026  0.0000
   9   H5        0.7090    0.2270   -2.2620   hc 0 0.026  0.0000
  10   H6        1.7010   -0.9250   -0.2580   hc 0 0.026  0.0000
  11   H7        1.6990    0.6390    0.6420   hc 0 0.026  0.0000
  12   H8       -0.2920   -0.7430    1.2320   hc 0 0.023  0.0000
  13   H9       -0.8030    0.7810    0.3960   hc 0 0.023  0.0000
  14  H10       -0.8010   -0.7880   -0.5060   hc 0 0.023  0.0000
@<TRIPOS>BOND
    1     1     2  1
    2     1     5  1
    3     1     6  1
    4     1     7  1
    5     2     3  1
    6     2     8  1
    7     2     9  1
    8     3     4  1
    9     3    10  1
   10     3    11  1
   11     4    12  1
   12     4    13  1
   13     4    14  1

@<TRIPOS>MOLECULE
MOL
   14   13    0    0    0




@<TRIPOS>ATOM
   1   C1        2.6690    1.0520   -1.8840   c3 0 -0.06  0.0000
   2   C2        1.2420    0.8100   -1.4650   c3 0 -0.05  0.0000
   3   C3        1.1660    0.0560   -0.1540   c3 0 -0.05  0.0000
   4   C4       -0.2610   -0.1870    0.2650   c3 0 -0.06  0.0000
   5   H1        2.9278    0.4318   -2.7766   hc 0 0.023  0.0000
   6   H2        2.8268    2.1257   -2.1460   hc 0 0.023  0.0000
   7   H3        3.3677    0.7848   -1.0541   hc 0 0.023  0.0000
   8   H4        0.7070    1.7910   -1.3620   hc 0 0.026  0.0000
   9   H5        0.7090    0.2270   -2.2620   hc 0 0.026  0.0000
  10   H6        1.7010   -0.9250   -0.2580   hc 0 0.026  0.0000
  11   H7        1.6990    0.6390    0.6420   hc 0 0.026  0.0000
  12   H8       -0.2920   -0.7430    1.2320   hc 0 0.023  0.0000
  13   H9       -0.8030    0.7810    0.3960   hc 0 0.023  0.0000
  14  H10       -0.8010   -0.7880   -0.5060   hc 0 0.023  0.0000
@<TRIPOS>BOND
    1     1     2  1
    2     1     5  1
    3     1     6  1
    4     1     7  1
    5     2     3  1
    6     2     8  1
    7     2     9  1
    8     3     4  1
    9     3    10  1
   10     3    11  1
   11     4    12  1
   12     4    13  1
   13     4    14  1

@<TRIPOS>MOLECULE
MOL
   14   13    0    0    0




@<TRIPOS>ATOM
   1   C1        2.6690    1.0520   -1.8840   c3 0 -0.06  0.0000
   2   C2        1.2420    0.8100   -1.4650   c3 0 -0.05  0.0000
   3   C3        1.1660    0.0560   -0.1540   c3 0 -0.05  0.0000
   4   C4       -0.2610   -0.1870    0.2650   c3 0 -0.06  0.0000
   5   H1        2.9223    0.4454   -2.7875   hc 0 0.023  0.0000
   6   H2        2.8313    2.1291   -2.1287   hc 0 0.023  0.0000
   7   H3        3.3686    0.7678   -1.0606   hc 0 0.023  0.0000
   8   H4        0.7070    1.7910   -1.3620   hc 0 0.026  0.0000
   9   H5        0.7090    0.2270   -2.2620   hc 0 0.026  0.0000
  10   H6        1.7010   -0.9250   -0.2580   hc 0 0.026  0.0000
  11   H7        1.6990    0.6390    0.6420   hc 0 0.026  0.0000
  12   H8       -0.2920   -0.7430    1.2320   hc 0 0.023  0.0000
  13   H9       -0.8030    0.7810    0.3960   hc 0 0.023  0.0000
  14  H10       -0.8010   -0.7880   -0.5060   hc 0 0.023  0.0000
@<TRIPOS>BOND
    1     1     2  1
    2     1     5  1
    3     1     6  1
    4     1     7  1
    5     2     3  1
    6     2     8  1
    7     2     9  1
    8     3     4  1
    9     3    10  1
   10     3    11  1
   11     4    12  1
   12     4    13  1
   13     4    14  1

@<TRIPOS>MOLECULE
MOL
   14   13    0    0    0




@<TRIPOS>ATOM
   1   C1        2.6690    1.0520   -1.8840   c3 0 -0.06  0.0000
   2   C2        1.2420    0.8100   -1.4650   c3 0 -0.05  0.0000
   3   C3        1.1660    0.0560   -0.1540   c3 0 -0.05  0.0000
   4   C4       -0.2610   -0.1870    0.2650   c3 0 -0.06  0.0000
   5   H1        2.9168    0.4592   -2.7981   hc 0 0.023  0.0000
   6   H2        2.8358    2.1322   -2.1113   hc 0 0.023  0.0000
   7   H3        3.3695    0.7508   -1.0674   hc 0 0.023  0.0000
   8   H4        0.7070    1.7910   -1.3620   hc 0 0.026  0.0000
   9   H5        0.7090    0.2270   -2.2620   hc 0 0.026  0.0000
  10   H6        1.7010   -0.9250   -0.2580   hc 0 0.026  0.0000
  11   H7        1.6990    0.6390    0.6420   hc 0 0.026  0.0000
  12   H8       -0.2920   -0.7430    1.2320   hc 0 0.023  0.0000
  13   H9       -0.8030    0.7810    0.3960   hc 0 0.023  0.0000
  14  H10       -0.8010   -0.7880   -0.5060   hc 0 0.023  0.0000
@<TRIPOS>BOND
    1     1     2  1
    2     1     5  1
    3     1     6  1
    4     1     7  1
    5     2     3  1
    6     2     8  1
    7     2     9  1
    8     3     4  1
    9     3    10  1
   10     3    11  1
   11     4    12  1
   12     4    13  1
   13     4    14  1

@<TRIPOS>MOLECULE
MOL
   14   13    0    0    0




@<TRIPOS>ATOM
   1   C1        2.6690    1.0520   -1.8840   c3 0 -0.06  0.0000
   2   C2        1.2420    0.8100   -1.4650   c3 0 -0.05  0.0000
   3   C3        1.1660    0.0560   -0.1540   c3 0 -0.05  0.0000
   4   C4       -0.2610   -0.1870    0.2650   c3 0 -0.06  0.0000
   5   H1        2.9114    0.4732   -2.8085   hc 0 0.023  0.0000
   6   H2        2.8405    2.1350   -2.0939   hc 0 0.023  0.0000
   7   H3        3.3703    0.7340   -1.0745   hc 0 0.023  0.0000
   8   H4        0.7070    1.7910   -1.3620   hc 0 0.026  0.0000
   9   H5        0.7090    0.2270   -2.2620   hc 0 0.026  0.0000
  10   H6        1.7010   -0.9250   -0.2580   hc 0 0.026  0.0000
  11   H7        1.6990    0.6390    0.6420   hc 0 0.026  0.0000
  12   H8       -0.2920   -0.7430    1.2320   hc 0 0.023  0.0000
  13   H9       -0.8030    0.7810    0.3960   hc 0 0.023  0.0000
  14  H10       -0.8010   -0.7880   -0.5060   hc 0 0.023  0.0000
@<TRIPOS>BOND
    1     1     2  1
    2     1     5  1
    3     1     6  1
    4     1     7  1
    5     2     3  1
    6     2     8  1
    7     2     9  1
    8     3     4  1
    9     3    10  1
   10     3    11  1
   11     4    12  1
   12     4    13  1
   13     4    14  1

@<TRIPOS>MOLECULE
MOL
   14   13    0    0    0




@<TRIPOS>ATOM
   1   C1        2.6690    1.0520   -1.8840   c3 0 -0.06  0.0000
   2   C2        1.2420    0.8100   -1.4650   c3 0 -0.05  0.0000
   3   C3        1.1660    0.0560   -0.1540   c3 0 -0.05  0.0000
   4   C4       -0.2610   -0.1870    0.2650   c3 0 -0.06  0.0000
   5   H1        2.9060    0.4874   -2.8186   hc 0 0.023  0.0000
   6   H2        2.8452    2.1374   -2.0765   hc 0 0.023  0.0000
   7   H3        3.3710    0.7173   -1.0819   hc 0 0.023  0.0000
   8   H4        0.7070    1.7910   -1.3620   hc 0 0.026  0.0000
   9   H5        0.7090    0.2270   -2.2620   hc 0 0.026  0.0000
  10   H6        1.7010   -0.9250   -0.2580   hc 0 0.026  0.0000
  11   H7        1.6990    0.6390    0.6420   hc 0 0.026  0.0000
  12   H8       -0.2920   -0.7430    1.2320   hc 0 0.023  0.0000
  13   H9       -0.8030    0.7810    0.3960   hc 0 0.023  0.0000
  14  H10       -0.8010   -0.7880   -0.5060   hc 0 0.023  0.0000
@<TRIPOS>BOND
    1     1     2  1
    2     1     5  1
    3     1     6  1
    4     1     7  1
    5     2     3  1
    6     2     8  1
    7     2     9  1
    8     3     4  1
    9     3    10  1
   10     3    11  1
   11     4    12  1
   12     4    13  1
   13     4    14  1

@<TRIPOS>MOLECULE
MOL
   14   13    0    0    0




@<TRIPOS>ATOM
   1   C1        2.6690    1.0520   -1.8840   c3 0 -0.06  0.0000
   2   C2        1.2420    0.8100   -1.4650   c3 0 -0.05  0.0000
   3   C3        1.1660    0.0560   -0.1540   c3 0 -0.05  0.0000
   4   C4       -0.2610   -0.1870    0.2650   c3 0 -0.06  0.0000
   5   H1        2.9007    0.5018   -2.8285   hc 0 0.023  0.0000
   6   H2        2.8499    2.1396   -2.0590   hc 0 0.023  0.0000
   7   H3        3.3716    0.7007   -1.0895   hc 0 0.023  0.0000
   8   H4        0.7070    1.7910   -1.3620   hc 0 0.026  0.0000
   9   H5        0.7090    0.2270   -2.2620   hc 0 0.026  0.0000
  10   H6        1.7010   -0.9250   -0.2580   hc 0 0.026  0.0000
  11   H7        1.6990    0.6390    0.6420   hc 0 0.026  0.0000
  12   H8       -0.2920   -0.7430    1.2320   hc 0 0.023  0.0000
  13   H9       -0.8030    0.7810    0.3960   hc 0 0.023  0.0000
  14  H10       -0.8010   -0.7880   -0.5060   hc 0 0.023  0.0000
@<TRIPOS>BOND
    1     1     2  1
    2     1     5  1
    3     1     6  1
    4     1     7  1
    5     2     3  1
    6     2     8  1
    7     2     9  1
    8     3     4  1
    9     3    10  1
   10     3    11  1
   11     4    12  1
   12     4    13  1
   13     4    14  1

@<TRIPOS>MOLECULE
MOL
   14   13    0    0    0




@<TRIPOS>ATOM
   1   C1        2.6690    1.0520   -1.8840   c3 0 -0.06  0.0000
   2   C2        1.2420    0.8100   -1.4650   c3 0 -0.05  0.0000
   3   C3        1.1660    0.0560   -0.1540   c3 0 -0.05  0.0000
   4   C4       -0.2610   -0.1870    0.2650   c3 0 -0.06  0.0000
   5   H1        2.8954    0.5164   -2.8381   hc 0 0.023  0.0000
   6   H2        2.8548    2.1415   -2.0415   hc 0 0.023  0.0000
   7   H3        3.3720    0.6842   -1.0974   hc 0 0.023  0.0000
   8   H4        0.7070    1.7910   -1.3620   hc 0 0.026  0.0000
   9   H5        0.7090    0.2270   -2.2620   hc 0 0.026  0.0000
  10   H6        1.7010   -0.9250   -0.2580   hc 0 0.026  0.0000
  11   H7        1.6990    0.6390    0.6420   hc 0 0.026  0.0000
  12   H8       -0.2920   -0.7430    1.2320   hc 0 0.023  0.0000
  13   H9       -0.8030    0.7810    0.3960   hc 0 0.023  0.0000
  14  H10       -0.8010   -0.7880   -0.5060   hc 0 0.023  0.0000
@<TRIPOS>BOND
    1     1     2  1
    2     1     5  1
    3     1     6  1
    4     1     7  1
    5     2     3  1
    6     2     8  1
    7     2     9  1
    8     3     4  1
    9     3    10  1
   10     3    11  1
   11     4    12  1
   12     4    13  1
   13     4    14  1

@<TRIPOS>MOLECULE
MOL
   14   13    0    0    0




@<TRIPOS>ATOM
   1   C1        2.6690    1.0520   -1.8840   c3 0 -0.06  0.0000
   2   C2        1.2420    0.8100   -1.4650   c3 0 -0.05  0.0000
   3   C3        1.1660    0.0560   -0.1540   c3 0 -0.05  0.0000
   4   C4       -0.2610   -0.1870    0.2650   c3 0 -0.06  0.0000
   5   H1        2.8902    0.5311   -2.8474   hc 0 0.023  0.0000
   6   H2        2.8596    2.1430   -2.0240   hc 0 0.023  0.0000
   7   H3        3.3724    0.6678   -1.1056   hc 0 0.023  0.0000
   8   H4        0.7070    1.7910   -1.3620   hc 0 0.026  0.0000
   9   H5        0.7090    0.2270   -2.2620   hc 0 0.026  0.0000
  10   H6        1.7010   -0.9250   -0.2580   hc 0 0.026  0.0000
  11   H7        1.6990    0.6390    0.6420   hc 0 0.026  0.0000
  12   H8       -0.2920   -0.7430    1.2320   hc 0 0.023  0.0000
  13   H9       -0.8030    0.7810    0.3960   hc 0 0.023  0.0000
  14  H10       -0.8010   -0.7880   -0.5060   hc 0 0.023  0.0000
@<TRIPOS>BOND
    1     1     2  1
    2     1     5  1
    3     1     6  1
    4     1     7  1
    5     2     3  1
    6     2     8  1
    7     2     9  1
    8     3     4  1
    9     3    10  1
   10     3    11  1
   11     4    12  1
   12     4    13  1
   13     4    14  1

@<TRIPOS>MOLECULE
MOL
   14   13    0    0    0




@<TRIPOS>ATOM
   1   C1        2.6690    1.0520   -1.8840   c3 0 -0.06  0.0000
   2   C2        1.2420    0.8100   -1.4650   c3 0 -0.05  0.0000
   3   C3        1.1660    0.0560   -0.1540   c3 0 -0.05  0.0000
   4   C4       -0.2610   -0.1870    0.2650   c3 0 -0.06  0.0000
   5   H1        2.8849    0.5461   -2.8565   hc 0 0.023  0.0000
   6   H2        2.8646    2.1443   -2.0065   hc 0 0.023  0.0000
   7   H3        3.3727    0.6516   -1.1141   hc 0 0.023  0.0000
   8   H4        0.7070    1.7910   -1.3620   hc 0 0.026  0.0000
   9   H5        0.7090    0.2270   -2.2620   hc 0 0.026  0.0000
  10   H6        1.7010   -0.9250   -0.2580   hc 0 0.026  0.0000
  11   H7        1.6990    0.6390    0.6420   hc 0 0.026  0.0000
  12   H8       -0.2920   -0.7430    1.2320   hc 0 0.023  0.0000
  13   H9       -0.8030    0.7810    0.3960   hc 0 0.023  0.0000
  14  H10       -0.8010   -0.7880   -0.5060   hc 0 0.023  0.0000
@<TRIPOS>BOND
    1     1     2  1
    2     1     5  1
    3     1     6  1
    4     1     7  1
    5     2     3  1
    6     2     8  1
    7     2     9  1
    8     3     4  1
    9     3    10  1
   10     3    11  1
   11     4    12  1
   12     4    13  1
   13     4    14  1

@<TRIPOS>MOLECULE
MOL
   14   13    0    0    0




@<TRIPOS>ATOM
   1   C1        2.6690    1.0520   -1.8840   c3 0 -0.06  0.0000
   2   C2        1.2420    0.8100   -1.4650   c3 0 -0.05  0.0000
   3   C3        1.1660    0.0560   -0.1540   c3 0 -0.05  0.0000
   4   C4       -0.2610   -0.1870    0.2650   c3 0 -0.06  0.0000
   5   H1        2.8798    0.5612   -2.8654   hc 0 0.023  0.0000
   6   H2        2.8695    2.1452   -1.9890   hc 0 0.023  0.0000
   7   H3        3.3728    0.6355   -1.1228   hc 0 0.023  0.0000
   8   H4        0.7070    1.7910   -1.3620   hc 0 0.026  0.0000
   9   H5        0.7090    0.2270   -2.2620   hc 0 0.026  0.0000
  10   H6        1.7010   -0.9250   -0.2580   hc 0 0.026  0.0000
  11   H7        1.6990    0.6390    0.6420   hc 0 0.026  0.0000
  12   H8       -0.2920   -0.7430    1.2320   hc 0 0.023  0.0000
  13   H9       -0.8030    0.7810    0.3960   hc 0 0.023  0.0000
  14  H10       -0.8010   -0.7880   -0.5060   hc 0 0.023  0.0000
@<TRIPOS>BOND
    1     1     2  1
    2     1     5  1
    3     1     6  1
    4     1     7  1
    5     2     3  1
    6     2     8  1
    7     2     9  1
    8     3     4  1
    9     3    10  1
   10     3    11  1
   11     4    12  1
   12     4    13  1
   13     4    14  1

@<TRIPOS>MOLECULE
MOL
   14   13    0    0    0




@<TRIPOS>ATOM
   1   C1        2.6690    1.0520   -1.8840   c3 0 -0.06  0.0000
   2   C2        1.2420    0.8100   -1.4650   c3 0 -0.05  0.0000
   3   C3        1.1660    0.0560   -0.1540   c3 0 -0.05  0.0000
   4   C4       -0.2610   -0.1870    0.2650   c3 0 -0.06  0.0000
   5   H1        2.8747    0.5765   -2.8739   hc 0 0.023  0.0000
   6   H2        2.8746    2.1458   -1.9715   hc 0 0.023  0.0000
   7   H3        3.3729    0.6196   -1.1318   hc 0 0.023  0.0000
   8   H4        0.7070    1.7910   -1.3620   hc 0 0.026  0.0000
   9   H5        0.7090    0.2270   -2.2620   hc 0 0.026  0.0000
  10   H6        1.7010   -0.9250   -0.2580   hc 0 0.026  0.0000
  11   H7        1.6990    0.6390    0.6420   hc 0 0.026  0.0000
  12   H8       -0.2920   -0.7430    1.2320   hc 0 0.023  0.0000
  13   H9       -0.8030    0.7810    0.3960   hc 0 0.023  0.0000
  14  H10       -0.8010   -0.7880   -0.5060   hc 0 0.023  0.0000
@<TRIPOS>BOND
    1     1     2  1
    2     1     5  1
    3     1     6  1
    4     1     7  1
    5     2     3  1
    6     2     8  1
    7     2     9  1
    8     3     4  1
    9     3    10  1
   10     3    11  1
   11     4    12  1
   12     4    13  1
   13     4    14  1

@<TRIPOS>MOLECULE
MOL
   14   13    0    0    0




@<TRIPOS>ATOM
   1   C1        2.6690    1.0520   -1.8840   c3 0 -0.06  0.0000
   2   C2        1.2420    0.8100   -1.4650   c3 0 -0.05  0.0000
   3   C3        1.1660    0.0560   -0.1540   c3 0 -0.05  0.0000
   4   C4       -0.2610   -0.1870    0.2650   c3 0 -0.06  0.0000
   5   H1        2.8696    0.5919   -2.8823   hc 0 0.023  0.0000
   6   H2        2.8797    2.1461   -1.9540   hc 0 0.023  0.0000
   7   H3        3.3728    0.6039   -1.1410   hc 0 0.023  0.0000
   8   H4        0.7070    1.7910   -1.3620   hc 0 0.026  0.0000
   9   H5        0.7090    0.2270   -2.2620   hc 0 0.026  0.0000
  10   H6        1.7010   -0.9250   -0.2580   hc 0 0.026  0.0000
  11   H7        1.6990    0.6390    0.6420   hc 0 0.026  0.0000
  12   H8       -0.2920   -0.7430    1.2320   hc 0 0.023  0.0000
  13   H9       -0.8030    0.7810    0.3960   hc 0 0.023  0.0000
  14  H10       -0.8010   -0.7880   -0.5060   hc 0 0.023  0.0000
@<TRIPOS>BOND
    1     1     2  1
    2     1     5  1
    3     1     6  1
    4     1     7  1
    5     2     3  1
    6     2     8  1
    7     2     9  1
    8     3     4  1
    9     3    10  1
   10     3    11  1
   11     4    12  1
   12     4    13  1
   13     4    14  1

@<TRIPOS>MOLECULE
MOL
   14   13    0    0    0




@<TRIPOS>ATOM
   1   C1        2.6690    1.0520   -1.8840   c3 0 -0.06  0.0000
   2   C2        1.2420    0.8100   -1.4650   c3 0 -0.05  0.0000
   3   C3        1.1660    0.0560   -0.1540   c3 0 -0.05  0.0000
   4   C4       -0.2610   -0.1870    0.2650   c3 0 -0.06  0.0000
   5   H1        2.8646    0.6075   -2.8903   hc 0 0.023  0.0000
   6   H2        2.8848    2.1461   -1.9365   hc 0 0.023  0.0000
   7   H3        3.3727    0.5882   -1.1505   hc 0 0.023  0.0000
   8   H4        0.7070    1.7910   -1.3620   hc 0 0.026  0.0000
   9   H5        0.7090    0.2270   -2.2620   hc 0 0.026  0.0000
  10   H6        1.7010   -0.9250   -0.2580   hc 0 0.026  0.0000
  11   H7        1.6990    0.6390    0.6420   hc 0 0.026  0.0000
  12   H8       -0.2920   -0.7430    1.2320   hc 0 0.023  0.0000
  13   H9       -0.8030    0.7810    0.3960   hc 0 0.023  0.0000
  14  H10       -0.8010   -0.7880   -0.5060   hc 0 0.023  0.0000
@<TRIPOS>BOND
    1     1     2  1
    2     1     5  1
    3     1     6  1
    4     1     7  1
    5     2     3  1
    6     2     8  1
    7     2     9  1
    8     3     4  1
    9     3    10  1
   10     3    11  1
   11     4    12  1
   12     4    13  1
   13     4    14  1

@<TRIPOS>MOLECULE
MOL
   14   13    0    0    0




@<TRIPOS>ATOM
   1   C1        2.6690    1.0520   -1.8840   c3 0 -0.06  0.0000
   2   C2        1.2420    0.8100   -1.4650   c3 0 -0.05  0.0000
   3   C3        1.1660    0.0560   -0.1540   c3 0 -0.05  0.0000
   4   C4       -0.2610   -0.1870    0.2650   c3 0 -0.06  0.0000
   5   H1        2.8597    0.6233   -2.8980   hc 0 0.023  0.0000
   6   H2        2.8900    2.1457   -1.9191   hc 0 0.023  0.0000
   7   H3        3.3725    0.5728   -1.1603   hc 0 0.023  0.0000
   8   H4        0.7070    1.7910   -1.3620   hc 0 0.026  0.0000
   9   H5        0.7090    0.2270   -2.2620   hc 0 0.026  0.0000
  10   H6        1.7010   -0.9250   -0.2580   hc 0 0.026  0.0000
  11   H7        1.6990    0.6390    0.6420   hc 0 0.026  0.0000
  12   H8       -0.2920   -0.7430    1.2320   hc 0 0.023  0.0000
  13   H9       -0.8030    0.7810    0.3960   hc 0 0.023  0.0000
  14  H10       -0.8010   -0.7880   -0.5060   hc 0 0.023  0.0000
@<TRIPOS>BOND
    1     1     2  1
    2     1     5  1
    3     1     6  1
    4     1     7  1
    5     2     3  1
    6     2     8  1
    7     2     9  1
    8     3     4  1
    9     3    10  1
   10     3    11  1
   11     4    12  1
   12     4    13  1
   13     4    14  1

@<TRIPOS>MOLECULE
MOL
   14   13    0    0    0




@<TRIPOS>ATOM
   1   C1        2.6690    1.0520   -1.8840   c3 0 -0.06  0.0000
   2   C2        1.2420    0.8100   -1.4650   c3 0 -0.05  0.0000
   3   C3        1.1660    0.0560   -0.1540   c3 0 -0.05  0.0000
   4   C4       -0.2610   -0.1870    0.2650   c3 0 -0.06  0.0000
   5   H1        2.8548    0.6392   -2.9055   hc 0 0.023  0.0000
   6   H2        2.8952    2.1451   -1.9016   hc 0 0.023  0.0000
   7   H3        3.3721    0.5575   -1.1703   hc 0 0.023  0.0000
   8   H4        0.7070    1.7910   -1.3620   hc 0 0.026  0.0000
   9   H5        0.7090    0.2270   -2.2620   hc 0 0.026  0.0000
  10   H6        1.7010   -0.9250   -0.2580   hc 0 0.026  0.0000
  11   H7        1.6990    0.6390    0.6420   hc 0 0.026  0.0000
  12   H8       -0.2920   -0.7430    1.2320   hc 0 0.023  0.0000
  13   H9       -0.8030    0.7810    0.3960   hc 0 0.023  0.0000
  14  H10       -0.8010   -0.7880   -0.5060   hc 0 0.023  0.0000
@<TRIPOS>BOND
    1     1     2  1
    2     1     5  1
    3     1     6  1
    4     1     7  1
    5     2     3  1
    6     2     8  1
    7     2     9  1
    8     3     4  1
    9     3    10  1
   10     3    11  1
   11     4    12  1
   12     4    13  1
   13     4    14  1

@<TRIPOS>MOLECULE
MOL
   14   13    0    0    0




@<TRIPOS>ATOM
   1   C1        2.6690    1.0520   -1.8840   c3 0 -0.06  0.0000
   2   C2        1.2420    0.8100   -1.4650   c3 0 -0.05  0.0000
   3   C3        1.1660    0.0560   -0.1540   c3 0 -0.05  0.0000
   4   C4       -0.2610   -0.1870    0.2650   c3 0 -0.06  0.0000
   5   H1        2.8499    0.6552   -2.9127   hc 0 0.023  0.0000
   6   H2        2.9005    2.1441   -1.8842   hc 0 0.023  0.0000
   7   H3        3.3717    0.5424   -1.1806   hc 0 0.023  0.0000
   8   H4        0.7070    1.7910   -1.3620   hc 0 0.026  0.0000
   9   H5        0.7090    0.2270   -2.2620   hc 0 0.026  0.0000
  10   H6        1.7010   -0.9250   -0.2580   hc 0 0.026  0.0000
  11   H7        1.6990    0.6390    0.6420   hc 0 0.026  0.0000
  12   H8       -0.2920   -0.7430    1.2320   hc 0 0.023  0.0000
  13   H9       -0.8030    0.7810    0.3960   hc 0 0.023  0.0000
  14  H10       -0.8010   -0.7880   -0.5060   hc 0 0.023  0.0000
@<TRIPOS>BOND
    1     1     2  1
    2     1     5  1
    3     1     6  1
    4     1     7  1
    5     2     3  1
    6     2     8  1
    7     2     9  1
    8     3     4  1
    9     3    10  1
   10     3    11  1
   11     4    12  1
   12     4    13  1
   13     4    14  1

@<TRIPOS>MOLECULE
MOL
   14   13    0    0    0




@<TRIPOS>ATOM
   1   C1        2.6690    1.0520   -1.8840   c3 0 -0.06  0.0000
   2   C2        1.2420    0.8100   -1.4650   c3 0 -0.05  0.0000
   3   C3        1.1660    0.0560   -0.1540   c3 0 -0.05  0.0000
   4   C4       -0.2610   -0.1870    0.2650   c3 0 -0.06  0.0000
   5   H1        2.8452    0.6714   -2.9197   hc 0 0.023  0.0000
   6   H2        2.9058    2.1428   -1.8668   hc 0 0.023  0.0000
   7   H3        3.3711    0.5274   -1.1911   hc 0 0.023  0.0000
   8   H4        0.7070    1.7910   -1.3620   hc 0 0.026  0.0000
   9   H5        0.7090    0.2270   -2.2620   hc 0 0.026  0.0000
  10   H6        1.7010   -0.9250   -0.2580   hc 0 0.026  0.0000
  11   H7        1.6990    0.6390    0.6420   hc 0 0.026  0.0000
  12   H8       -0.2920   -0.7430    1.2320   hc 0 0.023  0.0000
  13   H9       -0.8030    0.7810    0.3960   hc 0 0.023  0.0000
  14  H10       -0.8010   -0.7880   -0.5060   hc 0 0.023  0.0000
@<TRIPOS>BOND
    1     1     2  1
    2     1     5  1
    3     1     6  1
    4     1     7  1
    5     2     3  1
    6     2     8  1
    7     2     9  1
    8     3     4  1
    9     3    10  1
   10     3    11  1
   11     4    12  1
   12     4    13  1
   13     4    14  1

@<TRIPOS>MOLECULE
MOL
   14   13    0    0    0




@<TRIPOS>ATOM
   1   C1        2.6690    1.0520   -1.8840   c3 0 -0.06  0.0000
   2   C2        1.2420    0.8100   -1.4650   c3 0 -0.05  0.0000
   3   C3        1.1660    0.0560   -0.1540   c3 0 -0.05  0.0000
   4   C4       -0.2610   -0.1870    0.2650   c3 0 -0.06  0.0000
   5   H1        2.8404    0.6878   -2.9263   hc 0 0.023  0.0000
   6   H2        2.9112    2.1412   -1.8495   hc 0 0.023  0.0000
   7   H3        3.3704    0.5126   -1.2019   hc 0 0.023  0.0000
   8   H4        0.7070    1.7910   -1.3620   hc 0 0.026  0.0000
   9   H5        0.7090    0.2270   -2.2620   hc 0 0.026  0.0000
  10   H6        1.7010   -0.9250   -0.2580   hc 0 0.026  0.0000
  11   H7        1.6990    0.6390    0.6420   hc 0 0.026  0.0000
  12   H8       -0.2920   -0.7430    1.2320   hc 0 0.023  0.0000
  13   H9       -0.8030    0.7810    0.3960   hc 0 0.023  0.0000
  14  H10       -0.8010   -0.7880   -0.5060   hc 0 0.023  0.0000
@<TRIPOS>BOND
    1     1     2  1
    2     1     5  1
    3     1     6  1
    4     1     7  1
    5     2     3  1
    6     2     8  1
    7     2     9  1
    8     3     4  1
    9     3    10  1
   10     3    11  1
   11     4    12  1
   12     4    13  1
   13     4    14  1

@<TRIPOS>MOLECULE
MOL
   14   13    0    0    0




@<TRIPOS>ATOM
   1   C1        2.6690    1.0520   -1.8840   c3 0 -0.06  0.0000
   2   C2        1.2420    0.8100   -1.4650   c3 0 -0.05  0.0000
   3   C3        1.1660    0.0560   -0.1540   c3 0 -0.05  0.0000
   4   C4       -0.2610   -0.1870    0.2650   c3 0 -0.06  0.0000
   5   H1        2.8358    0.7042   -2.9327   hc 0 0.023  0.0000
   6   H2        2.9166    2.1393   -1.8322   hc 0 0.023  0.0000
   7   H3        3.3697    0.4981   -1.2129   hc 0 0.023  0.0000
   8   H4        0.7070    1.7910   -1.3620   hc 0 0.026  0.0000
   9   H5        0.7090    0.2270   -2.2620   hc 0 0.026  0.0000
  10   H6        1.7010   -0.9250   -0.2580   hc 0 0.026  0.0000
  11   H7        1.6990    0.6390    0.6420   hc 0 0.026  0.0000
  12   H8       -0.2920   -0.7430    1.2320   hc 0 0.023  0.0000
  13   H9       -0.8030    0.7810    0.3960   hc 0 0.023  0.0000
  14  H10       -0.8010   -0.7880   -0.5060   hc 0 0.023  0.0000
@<TRIPOS>BOND
    1     1     2  1
    2     1     5  1
    3     1     6  1
    4     1     7  1
    5     2     3  1
    6     2     8  1
    7     2     9  1
    8     3     4  1
    9     3    10  1
   10     3    11  1
   11     4    12  1
   12     4    13  1
   13     4    14  1

@<TRIPOS>MOLECULE
MOL
   14   13    0    0    0




@<TRIPOS>ATOM
   1   C1        2.6690    1.0520   -1.8840   c3 0 -0.06  0.0000
   2   C2        1.2420    0.8100   -1.4650   c3 0 -0.05  0.0000
   3   C3        1.1660    0.0560   -0.1540   c3 0 -0.05  0.0000
   4   C4       -0.2610   -0.1870    0.2650   c3 0 -0.06  0.0000
   5   H1        2.8312    0.7208   -2.9387   hc 0 0.023  0.0000
   6   H2        2.9220    2.1371   -1.8149   hc 0 0.023  0.0000
   7   H3        3.3688    0.4837   -1.2241   hc 0 0.023  0.0000
   8   H4        0.7070    1.7910   -1.3620   hc 0 0.026  0.0000
   9   H5        0.7090    0.2270   -2.2620   hc 0 0.026  0.0000
  10   H6        1.7010   -0.9250   -0.2580   hc 0 0.026  0.0000
  11   H7        1.6990    0.6390    0.6420   hc 0 0.026  0.0000
  12   H8       -0.2920   -0.7430    1.2320   hc 0 0.023  0.0000
  13   H9       -0.8030    0.7810    0.3960   hc 0 0.023  0.0000
  14  H10       -0.8010   -0.7880   -0.5060   hc 0 0.023  0.0000
@<TRIPOS>BOND
    1     1     2  1
    2     1     5  1
    3     1     6  1
    4     1     7  1
    5     2     3  1
    6     2     8  1
    7     2     9  1
    8     3     4  1
    9     3    10  1
   10     3    11  1
   11     4    12  1
   12     4    13  1
   13     4    14  1

@<TRIPOS>MOLECULE
MOL
   14   13    0    0    0




@<TRIPOS>ATOM
   1   C1        2.6690    1.0520   -1.8840   c3 0 -0.06  0.0000
   2   C2        1.2420    0.8100   -1.4650   c3 0 -0.05  0.0000
   3   C3        1.1660    0.0560   -0.1540   c3 0 -0.05  0.0000
   4   C4       -0.2610   -0.1870    0.2650   c3 0 -0.06  0.0000
   5   H1        2.8266    0.7375   -2.9445   hc 0 0.023  0.0000
   6   H2        2.9275    2.1346   -1.7977   hc 0 0.023  0.0000
   7   H3        3.3679    0.4694   -1.2356   hc 0 0.023  0.0000
   8   H4        0.7070    1.7910   -1.3620   hc 0 0.026  0.0000
   9   H5        0.7090    0.2270   -2.2620   hc 0 0.026  0.0000
  10   H6        1.7010   -0.9250   -0.2580   hc 0 0.026  0.0000
  11   H7        1.6990    0.6390    0.6420   hc 0 0.026  0.0000
  12   H8       -0.2920   -0.7430    1.2320   hc 0 0.023  0.0000
  13   H9       -0.8030    0.7810    0.3960   hc 0 0.023  0.0000
  14  H10       -0.8010   -0.7880   -0.5060   hc 0 0.023  0.0000
@<TRIPOS>BOND
    1     1     2  1
    2     1     5  1
    3     1     6  1
    4     1     7  1
    5     2     3  1
    6     2     8  1
    7     2     9  1
    8     3     4  1
    9     3    10  1
   10     3    11  1
   11     4    12  1
   12     4    13  1
   13     4    14  1

@<TRIPOS>MOLECULE
MOL
   14   13    0    0    0




@<TRIPOS>ATOM
   1   C1        2.6690    1.0520   -1.8840   c3 0 -0.06  0.0000
   2   C2        1.2420    0.8100   -1.4650   c3 0 -0.05  0.0000
   3   C3        1.1660    0.0560   -0.1540   c3 0 -0.05  0.0000
   4   C4       -0.2610   -0.1870    0.2650   c3 0 -0.06  0.0000
   5   H1        2.8222    0.7543   -2.9500   hc 0 0.023  0.0000
   6   H2        2.9330    2.1318   -1.7806   hc 0 0.023  0.0000
   7   H3        3.3668    0.4554   -1.2473   hc 0 0.023  0.0000
   8   H4        0.7070    1.7910   -1.3620   hc 0 0.026  0.0000
   9   H5        0.7090    0.2270   -2.2620   hc 0 0.026  0.0000
  10   H6        1.7010   -0.9250   -0.2580   hc 0 0.026  0.0000
  11   H7        1.6990    0.6390    0.6420   hc 0 0.026  0.0000
  12   H8       -0.2920   -0.7430    1.2320   hc 0 0.023  0.0000
  13   H9       -0.8030    0.7810    0.3960   hc 0 0.023  0.0000
  14  H10       -0.8010   -0.7880   -0.5060   hc 0 0.023  0.0000
@<TRIPOS>BOND
    1     1     2  1
    2     1     5  1
    3     1     6  1
    4     1     7  1
    5     2     3  1
    6     2     8  1
    7     2     9  1
    8     3     4  1
    9     3    10  1
   10     3    11  1
   11     4    12  1
   12     4    13  1
   13     4    14  1

@<TRIPOS>MOLECULE
MOL
   14   13    0    0    0




@<TRIPOS>ATOM
   1   C1        2.6690    1.0520   -1.8840   c3 0 -0.06  0.0000
   2   C2        1.2420    0.8100   -1.4650   c3 0 -0.05  0.0000
   3   C3        1.1660    0.0560   -0.1540   c3 0 -0.05  0.0000
   4   C4       -0.2610   -0.1870    0.2650   c3 0 -0.06  0.0000
   5   H1        2.8178    0.7713   -2.9552   hc 0 0.023  0.0000
   6   H2        2.9386    2.1286   -1.7635   hc 0 0.023  0.0000
   7   H3        3.3657    0.4416   -1.2592   hc 0 0.023  0.0000
   8   H4        0.7070    1.7910   -1.3620   hc 0 0.026  0.0000
   9   H5        0.7090    0.2270   -2.2620   hc 0 0.026  0.0000
  10   H6        1.7010   -0.9250   -0.2580   hc 0 0.026  0.0000
  11   H7        1.6990    0.6390    0.6420   hc 0 0.026  0.0000
  12   H8       -0.2920   -0.7430    1.2320   hc 0 0.023  0.0000
  13   H9       -0.8030    0.7810    0.3960   hc 0 0.023  0.0000
  14  H10       -0.8010   -0.7880   -0.5060   hc 0 0.023  0.0000
@<TRIPOS>BOND
    1     1     2  1
    2     1     5  1
    3     1     6  1
    4     1     7  1
    5     2     3  1
    6     2     8  1
    7     2     9  1
    8     3     4  1
    9     3    10  1
   10     3    11  1
   11     4    12  1
   12     4    13  1
   13     4    14  1

@<TRIPOS>MOLECULE
MOL
   14   13    0    0    0




@<TRIPOS>ATOM
   1   C1        2.6690    1.0520   -1.8840   c3 0 -0.06  0.0000
   2   C2        1.2420    0.8100   -1.4650   c3 0 -0.05  0.0000
   3   C3        1.1660    0.0560   -0.1540   c3 0 -0.05  0.0000
   4   C4       -0.2610   -0.1870    0.2650   c3 0 -0.06  0.0000
   5   H1        2.8135    0.7883   -2.9601   hc 0 0.023  0.0000
   6   H2        2.9442    2.1252   -1.7465   hc 0 0.023  0.0000
   7   H3        3.3644    0.4280   -1.2714   hc 0 0.023  0.0000
   8   H4        0.7070    1.7910   -1.3620   hc 0 0.026  0.0000
   9   H5        0.7090    0.2270   -2.2620   hc 0 0.026  0.0000
  10   H6        1.7010   -0.9250   -0.2580   hc 0 0.026  0.0000
  11   H7        1.6990    0.6390    0.6420   hc 0 0.026  0.0000
  12   H8       -0.2920   -0.7430    1.2320   hc 0 0.023  0.0000
  13   H9       -0.8030    0.7810    0.3960   hc 0 0.023  0.0000
  14  H10       -0.8010   -0.7880   -0.5060   hc 0 0.023  0.0000
@<TRIPOS>BOND
    1     1     2  1
    2     1     5  1
    3     1     6  1
    4     1     7  1
    5     2     3  1
    6     2     8  1
    7     2     9  1
    8     3     4  1
    9     3    10  1
   10     3    11  1
   11     4    12  1
   12     4    13  1
   13     4    14  1

@<TRIPOS>MOLECULE
MOL
   14   13    0    0    0




@<TRIPOS>ATOM
   1   C1        2.6690    1.0520   -1.8840   c3 0 -0.06  0.0000
   2   C2        1.2420    0.8100   -1.4650   c3 0 -0.05  0.0000
   3   C3        1.1660    0.0560   -0.1540   c3 0 -0.05  0.0000
   4   C4       -0.2610   -0.1870    0.2650   c3 0 -0.06  0.0000
   5   H1        2.8092    0.8054   -2.9647   hc 0 0.023  0.0000
   6   H2        2.9498    2.1214   -1.7296   hc 0 0.023  0.0000
   7   H3        3.3630    0.4146   -1.2837   hc 0 0.023  0.0000
   8   H4        0.7070    1.7910   -1.3620   hc 0 0.026  0.0000
   9   H5        0.7090    0.2270   -2.2620   hc 0 0.026  0.0000
  10   H6        1.7010   -0.9250   -0.2580   hc 0 0.026  0.0000
  11   H7        1.6990    0.6390    0.6420   hc 0 0.026  0.0000
  12   H8       -0.2920   -0.7430    1.2320   hc 0 0.023  0.0000
  13   H9       -0.8030    0.7810    0.3960   hc 0 0.023  0.0000
  14  H10       -0.8010   -0.7880   -0.5060   hc 0 0.023  0.0000
@<TRIPOS>BOND
    1     1     2  1
    2     1     5  1
    3     1     6  1
    4     1     7  1
    5     2     3  1
    6     2     8  1
    7     2     9  1
    8     3     4  1
    9     3    10  1
   10     3    11  1
   11     4    12  1
   12     4    13  1
   13     4    14  1

@<TRIPOS>MOLECULE
MOL
   14   13    0    0    0




@<TRIPOS>ATOM
   1   C1        2.6690    1.0520   -1.8840   c3 0 -0.06  0.0000
   2   C2        1.2420    0.8100   -1.4650   c3 0 -0.05  0.0000
   3   C3        1.1660    0.0560   -0.1540   c3 0 -0.05  0.0000
   4   C4       -0.2610   -0.1870    0.2650   c3 0 -0.06  0.0000
   5   H1        2.8050    0.8227   -2.9691   hc 0 0.023  0.0000
   6   H2        2.9554    2.1173   -1.7127   hc 0 0.023  0.0000
   7   H3        3.3616    0.4014   -1.2963   hc 0 0.023  0.0000
   8   H4        0.7070    1.7910   -1.3620   hc 0 0.026  0.0000
   9   H5        0.7090    0.2270   -2.2620   hc 0 0.026  0.0000
  10   H6        1.7010   -0.9250   -0.2580   hc 0 0.026  0.0000
  11   H7        1.6990    0.6390    0.6420   hc 0 0.026  0.0000
  12   H8       -0.2920   -0.7430    1.2320   hc 0 0.023  0.0000
  13   H9       -0.8030    0.7810    0.3960   hc 0 0.023  0.0000
  14  H10       -0.8010   -0.7880   -0.5060   hc 0 0.023  0.0000
@<TRIPOS>BOND
    1     1     2  1
    2     1     5  1
    3     1     6  1
    4     1     7  1
    5     2     3  1
    6     2     8  1
    7     2     9  1
    8     3     4  1
    9     3    10  1
   10     3    11  1
   11     4    12  1
   12     4    13  1
   13     4    14  1

@<TRIPOS>MOLECULE
MOL
   14   13    0    0    0




@<TRIPOS>ATOM
   1   C1        2.6690    1.0520   -1.8840   c3 0 -0.06  0.0000
   2   C2        1.2420    0.8100   -1.4650   c3 0 -0.05  0.0000
   3   C3        1.1660    0.0560   -0.1540   c3 0 -0.05  0.0000
   4   C4       -0.2610   -0.1870    0.2650   c3 0 -0.06  0.0000
   5   H1        2.8009    0.8400   -2.9731   hc 0 0.023  0.0000
   6   H2        2.9611    2.1130   -1.6960   hc 0 0.023  0.0000
   7   H3        3.3600    0.3885   -1.3091   hc 0 0.023  0.0000
   8   H4        0.7070    1.7910   -1.3620   hc 0 0.026  0.0000
   9   H5        0.7090    0.2270   -2.2620   hc 0 0.026  0.0000
  10   H6        1.7010   -0.9250   -0.2580   hc 0 0.026  0.0000
  11   H7        1.6990    0.6390    0.6420   hc 0 0.026  0.0000
  12   H8       -0.2920   -0.7430    1.2320   hc 0 0.023  0.0000
  13   H9       -0.8030    0.7810    0.3960   hc 0 0.023  0.0000
  14  H10       -0.8010   -0.7880   -0.5060   hc 0 0.023  0.0000
@<TRIPOS>BOND
    1     1     2  1
    2     1     5  1
    3     1     6  1
    4     1     7  1
    5     2     3  1
    6     2     8  1
    7     2     9  1
    8     3     4  1
    9     3    10  1
   10     3    11  1
   11     4    12  1
   12     4    13  1
   13     4    14  1

@<TRIPOS>MOLECULE
MOL
   14   13    0    0    0




@<TRIPOS>ATOM
   1   C1        2.6690    1.0520   -1.8840   c3 0 -0.06  0.0000
   2   C2        1.2420    0.8100   -1.4650   c3 0 -0.05  0.0000
   3   C3        1.1660    0.0560   -0.1540   c3 0 -0.05  0.0000
   4   C4       -0.2610   -0.1870    0.2650   c3 0 -0.06  0.0000
   5   H1        2.7968    0.8574   -2.9768   hc 0 0.023  0.0000
   6   H2        2.9667    2.1083   -1.6793   hc 0 0.023  0.0000
   7   H3        3.3584    0.3757   -1.3221   hc 0 0.023  0.0000
   8   H4        0.7070    1.7910   -1.3620   hc 0 0.026  0.0000
   9   H5        0.7090    0.2270   -2.2620   hc 0 0.026  0.0000
  10   H6        1.7010   -0.9250   -0.2580   hc 0 0.026  0.0000
  11   H7        1.6990    0.6390    0.6420   hc 0 0.026  0.0000
  12   H8       -0.2920   -0.7430    1.2320   hc 0 0.023  0.0000
  13   H9       -0.8030    0.7810    0.3960   hc 0 0.023  0.0000
  14  H10       -0.8010   -0.7880   -0.5060   hc 0 0.023  0.0000
@<TRIPOS>BOND
    1     1     2  1
    2     1     5  1
    3     1     6  1
    4     1     7  1
    5     2     3  1
    6     2     8  1
    7     2     9  1
    8     3     4  1
    9     3    10  1
   10     3    11  1
   11     4    12  1
   12     4    13  1
   13     4    14  1

@<TRIPOS>MOLECULE
MOL
   14   13    0    0    0




@<TRIPOS>ATOM
   1   C1        2.6690    1.0520   -1.8840   c3 0 -0.06  0.0000
   2   C2        1.2420    0.8100   -1.4650   c3 0 -0.05  0.0000
   3   C3        1.1660    0.0560   -0.1540   c3 0 -0.05  0.0000
   4   C4       -0.2610   -0.1870    0.2650   c3 0 -0.06  0.0000
   5   H1        2.7929    0.8749   -2.9802   hc 0 0.023  0.0000
   6   H2        2.9725    2.1033   -1.6627   hc 0 0.023  0.0000
   7   H3        3.3566    0.3632   -1.3353   hc 0 0.023  0.0000
   8   H4        0.7070    1.7910   -1.3620   hc 0 0.026  0.0000
   9   H5        0.7090    0.2270   -2.2620   hc 0 0.026  0.0000
  10   H6        1.7010   -0.9250   -0.2580   hc 0 0.026  0.0000
  11   H7        1.6990    0.6390    0.6420   hc 0 0.026  0.0000
  12   H8       -0.2920   -0.7430    1.2320   hc 0 0.023  0.0000
  13   H9       -0.8030    0.7810    0.3960   hc 0 0.023  0.0000
  14  H10       -0.8010   -0.7880   -0.5060   hc 0 0.023  0.0000
@<TRIPOS>BOND
    1     1     2  1
    2     1     5  1
    3     1     6  1
    4     1     7  1
    5     2     3  1
    6     2     8  1
    7     2     9  1
    8     3     4  1
    9     3    10  1
   10     3    11  1
   11     4    12  1
   12     4    13  1
   13     4    14  1

@<TRIPOS>MOLECULE
MOL
   14   13    0    0    0




@<TRIPOS>ATOM
   1   C1        2.6690    1.0520   -1.8840   c3 0 -0.06  0.0000
   2   C2        1.2420    0.8100   -1.4650   c3 0 -0.05  0.0000
   3   C3        1.1660    0.0560   -0.1540   c3 0 -0.05  0.0000
   4   C4       -0.2610   -0.1870    0.2650   c3 0 -0.06  0.0000
   5   H1        2.7890    0.8924   -2.9834   hc 0 0.023  0.0000
   6   H2        2.9782    2.0980   -1.6462   hc 0 0.023  0.0000
   7   H3        3.3547    0.3509   -1.3488   hc 0 0.023  0.0000
   8   H4        0.7070    1.7910   -1.3620   hc 0 0.026  0.0000
   9   H5        0.7090    0.2270   -2.2620   hc 0 0.026  0.0000
  10   H6        1.7010   -0.9250   -0.2580   hc 0 0.026  0.0000
  11   H7        1.6990    0.6390    0.6420   hc 0 0.026  0.0000
  12   H8       -0.2920   -0.7430    1.2320   hc 0 0.023  0.0000
  13   H9       -0.8030    0.7810    0.3960   hc 0 0.023  0.0000
  14  H10       -0.8010   -0.7880   -0.5060   hc 0 0.023  0.0000
@<TRIPOS>BOND
    1     1     2  1
    2     1     5  1
    3     1     6  1
    4     1     7  1
    5     2     3  1
    6     2     8  1
    7     2     9  1
    8     3     4  1
    9     3    10  1
   10     3    11  1
   11     4    12  1
   12     4    13  1
   13     4    14  1

@<TRIPOS>MOLECULE
MOL
   14   13    0    0    0




@<TRIPOS>ATOM
   1   C1        2.6690    1.0520   -1.8840   c3 0 -0.06  0.0000
   2   C2        1.2420    0.8100   -1.4650   c3 0 -0.05  0.0000
   3   C3        1.1660    0.0560   -0.1540   c3 0 -0.05  0.0000
   4   C4       -0.2610   -0.1870    0.2650   c3 0 -0.06  0.0000
   5   H1        2.7852    0.9100   -2.9862   hc 0 0.023  0.0000
   6   H2        2.9839    2.0924   -1.6299   hc 0 0.023  0.0000
   7   H3        3.3528    0.3389   -1.3624   hc 0 0.023  0.0000
   8   H4        0.7070    1.7910   -1.3620   hc 0 0.026  0.0000
   9   H5        0.7090    0.2270   -2.2620   hc 0 0.026  0.0000
  10   H6        1.7010   -0.9250   -0.2580   hc 0 0.026  0.0000
  11   H7        1.6990    0.6390    0.6420   hc 0 0.026  0.0000
  12   H8       -0.2920   -0.7430    1.2320   hc 0 0.023  0.0000
  13   H9       -0.8030    0.7810    0.3960   hc 0 0.023  0.0000
  14  H10       -0.8010   -0.7880   -0.5060   hc 0 0.023  0.0000
@<TRIPOS>BOND
    1     1     2  1
    2     1     5  1
    3     1     6  1
    4     1     7  1
    5     2     3  1
    6     2     8  1
    7     2     9  1
    8     3     4  1
    9     3    10  1
   10     3    11  1
   11     4    12  1
   12     4    13  1
   13     4    14  1

@<TRIPOS>MOLECULE
MOL
   14   13    0    0    0




@<TRIPOS>ATOM
   1   C1        2.6690    1.0520   -1.8840   c3 0 -0.06  0.0000
   2   C2        1.2420    0.8100   -1.4650   c3 0 -0.05  0.0000
   3   C3        1.1660    0.0560   -0.1540   c3 0 -0.05  0.0000
   4   C4       -0.2610   -0.1870    0.2650   c3 0 -0.06  0.0000
   5   H1        2.7814    0.9277   -2.9887   hc 0 0.023  0.0000
   6   H2        2.9897    2.0866   -1.6136   hc 0 0.023  0.0000
   7   H3        3.3507    0.3270   -1.3762   hc 0 0.023  0.0000
   8   H4        0.7070    1.7910   -1.3620   hc 0 0.026  0.0000
   9   H5        0.7090    0.2270   -2.2620   hc 0 0.026  0.0000
  10   H6        1.7010   -0.9250   -0.2580   hc 0 0.026  0.0000
  11   H7        1.6990    0.6390    0.6420   hc 0 0.026  0.0000
  12   H8       -0.2920   -0.7430    1.2320   hc 0 0.023  0.0000
  13   H9       -0.8030    0.7810    0.3960   hc 0 0.023  0.0000
  14  H10       -0.8010   -0.7880   -0.5060   hc 0 0.023  0.0000
@<TRIPOS>BOND
    1     1     2  1
    2     1     5  1
    3     1     6  1
    4     1     7  1
    5     2     3  1
    6     2     8  1
    7     2     9  1
    8     3     4  1
    9     3    10  1
   10     3    11  1
   11     4    12  1
   12     4    13  1
   13     4    14  1

@<TRIPOS>MOLECULE
MOL
   14   13    0    0    0




@<TRIPOS>ATOM
   1   C1        2.6690    1.0520   -1.8840   c3 0 -0.06  0.0000
   2   C2        1.2420    0.8100   -1.4650   c3 0 -0.05  0.0000
   3   C3        1.1660    0.0560   -0.1540   c3 0 -0.05  0.0000
   4   C4       -0.2610   -0.1870    0.2650   c3 0 -0.06  0.0000
   5   H1        2.7778    0.9455   -2.9909   hc 0 0.023  0.0000
   6   H2        2.9955    2.0804   -1.5975   hc 0 0.023  0.0000
   7   H3        3.3486    0.3155   -1.3901   hc 0 0.023  0.0000
   8   H4        0.7070    1.7910   -1.3620   hc 0 0.026  0.0000
   9   H5        0.7090    0.2270   -2.2620   hc 0 0.026  0.0000
  10   H6        1.7010   -0.9250   -0.2580   hc 0 0.026  0.0000
  11   H7        1.6990    0.6390    0.6420   hc 0 0.026  0.0000
  12   H8       -0.2920   -0.7430    1.2320   hc 0 0.023  0.0000
  13   H9       -0.8030    0.7810    0.3960   hc 0 0.023  0.0000
  14  H10       -0.8010   -0.7880   -0.5060   hc 0 0.023  0.0000
@<TRIPOS>BOND
    1     1     2  1
    2     1     5  1
    3     1     6  1
    4     1     7  1
    5     2     3  1
    6     2     8  1
    7     2     9  1
    8     3     4  1
    9     3    10  1
   10     3    11  1
   11     4    12  1
   12     4    13  1
   13     4    14  1

@<TRIPOS>MOLECULE
MOL
   14   13    0    0    0




@<TRIPOS>ATOM
   1   C1        2.6690    1.0520   -1.8840   c3 0 -0.06  0.0000
   2   C2        1.2420    0.8100   -1.4650   c3 0 -0.05  0.0000
   3   C3        1.1660    0.0560   -0.1540   c3 0 -0.05  0.0000
   4   C4       -0.2610   -0.1870    0.2650   c3 0 -0.06  0.0000
   5   H1        2.7742    0.9633   -2.9928   hc 0 0.023  0.0000
   6   H2        3.0013    2.0739   -1.5814   hc 0 0.023  0.0000
   7   H3        3.3464    0.3041   -1.4043   hc 0 0.023  0.0000
   8   H4        0.7070    1.7910   -1.3620   hc 0 0.026  0.0000
   9   H5        0.7090    0.2270   -2.2620   hc 0 0.026  0.0000
  10   H6        1.7010   -0.9250   -0.2580   hc 0 0.026  0.0000
  11   H7        1.6990    0.6390    0.6420   hc 0 0.026  0.0000
  12   H8       -0.2920   -0.7430    1.2320   hc 0 0.023  0.0000
  13   H9       -0.8030    0.7810    0.3960   hc 0 0.023  0.0000
  14  H10       -0.8010   -0.7880   -0.5060   hc 0 0.023  0.0000
@<TRIPOS>BOND
    1     1     2  1
    2     1     5  1
    3     1     6  1
    4     1     7  1
    5     2     3  1
    6     2     8  1
    7     2     9  1
    8     3     4  1
    9     3    10  1
   10     3    11  1
   11     4    12  1
   12     4    13  1
   13     4    14  1

@<TRIPOS>MOLECULE
MOL
   14   13    0    0    0




@<TRIPOS>ATOM
   1   C1        2.6690    1.0520   -1.8840   c3 0 -0.06  0.0000
   2   C2        1.2420    0.8100   -1.4650   c3 0 -0.05  0.0000
   3   C3        1.1660    0.0560   -0.1540   c3 0 -0.05  0.0000
   4   C4       -0.2610   -0.1870    0.2650   c3 0 -0.06  0.0000
   5   H1        2.7707    0.9811   -2.9944   hc 0 0.023  0.0000
   6   H2        3.0071    2.0672   -1.5655   hc 0 0.023  0.0000
   7   H3        3.3440    0.2930   -1.4187   hc 0 0.023  0.0000
   8   H4        0.7070    1.7910   -1.3620   hc 0 0.026  0.0000
   9   H5        0.7090    0.2270   -2.2620   hc 0 0.026  0.0000
  10   H6        1.7010   -0.9250   -0.2580   hc 0 0.026  0.0000
  11   H7        1.6990    0.6390    0.6420   hc 0 0.026  0.0000
  12   H8       -0.2920   -0.7430    1.2320   hc 0 0.023  0.0000
  13   H9       -0.8030    0.7810    0.3960   hc 0 0.023  0.0000
  14  H10       -0.8010   -0.7880   -0.5060   hc 0 0.023  0.0000
@<TRIPOS>BOND
    1     1     2  1
    2     1     5  1
    3     1     6  1
    4     1     7  1
    5     2     3  1
    6     2     8  1
    7     2     9  1
    8     3     4  1
    9     3    10  1
   10     3    11  1
   11     4    12  1
   12     4    13  1
   13     4    14  1

@<TRIPOS>MOLECULE
MOL
   14   13    0    0    0




@<TRIPOS>ATOM
   1   C1        2.6690    1.0520   -1.8840   c3 0 -0.06  0.0000
   2   C2        1.2420    0.8100   -1.4650   c3 0 -0.05  0.0000
   3   C3        1.1660    0.0560   -0.1540   c3 0 -0.05  0.0000
   4   C4       -0.2610   -0.1870    0.2650   c3 0 -0.06  0.0000
   5   H1        2.7673    0.9990   -2.9957   hc 0 0.023  0.0000
   6   H2        3.0129    2.0601   -1.5498   hc 0 0.023  0.0000
   7   H3        3.3416    0.2822   -1.4332   hc 0 0.023  0.0000
   8   H4        0.7070    1.7910   -1.3620   hc 0 0.026  0.0000
   9   H5        0.7090    0.2270   -2.2620   hc 0 0.026  0.0000
  10   H6        1.7010   -0.9250   -0.2580   hc 0 0.026  0.0000
  11   H7        1.6990    0.6390    0.6420   hc 0 0.026  0.0000
  12   H8       -0.2920   -0.7430    1.2320   hc 0 0.023  0.0000
  13   H9       -0.8030    0.7810    0.3960   hc 0 0.023  0.0000
  14  H10       -0.8010   -0.7880   -0.5060   hc 0 0.023  0.0000
@<TRIPOS>BOND
    1     1     2  1
    2     1     5  1
    3     1     6  1
    4     1     7  1
    5     2     3  1
    6     2     8  1
    7     2     9  1
    8     3     4  1
    9     3    10  1
   10     3    11  1
   11     4    12  1
   12     4    13  1
   13     4    14  1

@<TRIPOS>MOLECULE
MOL
   14   13    0    0    0




@<TRIPOS>ATOM
   1   C1        2.6690    1.0520   -1.8840   c3 0 -0.06  0.0000
   2   C2        1.2420    0.8100   -1.4650   c3 0 -0.05  0.0000
   3   C3        1.1660    0.0560   -0.1540   c3 0 -0.05  0.0000
   4   C4       -0.2610   -0.1870    0.2650   c3 0 -0.06  0.0000
   5   H1        2.7639    1.0169   -2.9967   hc 0 0.023  0.0000
   6   H2        3.0188    2.0528   -1.5341   hc 0 0.023  0.0000
   7   H3        3.3391    0.2716   -1.4479   hc 0 0.023  0.0000
   8   H4        0.7070    1.7910   -1.3620   hc 0 0.026  0.0000
   9   H5        0.7090    0.2270   -2.2620   hc 0 0.026  0.0000
  10   H6        1.7010   -0.9250   -0.2580   hc 0 0.026  0.0000
  11   H7        1.6990    0.6390    0.6420   hc 0 0.026  0.0000
  12   H8       -0.2920   -0.7430    1.2320   hc 0 0.023  0.0000
  13   H9       -0.8030    0.7810    0.3960   hc 0 0.023  0.0000
  14  H10       -0.8010   -0.7880   -0.5060   hc 0 0.023  0.0000
@<TRIPOS>BOND
    1     1     2  1
    2     1     5  1
    3     1     6  1
    4     1     7  1
    5     2     3  1
    6     2     8  1
    7     2     9  1
    8     3     4  1
    9     3    10  1
   10     3    11  1
   11     4    12  1
   12     4    13  1
   13     4    14  1

@<TRIPOS>MOLECULE
MOL
   14   13    0    0    0




@<TRIPOS>ATOM
   1   C1        2.6690    1.0520   -1.8840   c3 0 -0.06  0.0000
   2   C2        1.2420    0.8100   -1.4650   c3 0 -0.05  0.0000
   3   C3        1.1660    0.0560   -0.1540   c3 0 -0.05  0.0000
   4   C4       -0.2610   -0.1870    0.2650   c3 0 -0.06  0.0000
   5   H1        2.7607    1.0348   -2.9974   hc 0 0.023  0.0000
   6   H2        3.0246    2.0451   -1.5187   hc 0 0.023  0.0000
   7   H3        3.3365    0.2613   -1.4627   hc 0 0.023  0.0000
   8   H4        0.7070    1.7910   -1.3620   hc 0 0.026  0.0000
   9   H5        0.7090    0.2270   -2.2620   hc 0 0.026  0.0000
  10   H6        1.7010   -0.9250   -0.2580   hc 0 0.026  0.0000
  11   H7        1.6990    0.6390    0.6420   hc 0 0.026  0.0000
  12   H8       -0.2920   -0.7430    1.2320   hc 0 0.023  0.0000
  13   H9       -0.8030    0.7810    0.3960   hc 0 0.023  0.0000
  14  H10       -0.8010   -0.7880   -0.5060   hc 0 0.023  0.0000
@<TRIPOS>BOND
    1     1     2  1
    2     1     5  1
    3     1     6  1
    4     1     7  1
    5     2     3  1
    6     2     8  1
    7     2     9  1
    8     3     4  1
    9     3    10  1
   10     3    11  1
   11     4    12  1
   12     4    13  1
   13     4    14  1

@<TRIPOS>MOLECULE
MOL
   14   13    0    0    0




@<TRIPOS>ATOM
   1   C1        2.6690    1.0520   -1.8840   c3 0 -0.06  0.0000
   2   C2        1.2420    0.8100   -1.4650   c3 0 -0.05  0.0000
   3   C3        1.1660    0.0560   -0.1540   c3 0 -0.05  0.0000
   4   C4       -0.2610   -0.1870    0.2650   c3 0 -0.06  0.0000
   5   H1        2.7575    1.0528   -2.9978   hc 0 0.023  0.0000
   6   H2        3.0305    2.0372   -1.5033   hc 0 0.023  0.0000
   7   H3        3.3338    0.2512   -1.4778   hc 0 0.023  0.0000
   8   H4        0.7070    1.7910   -1.3620   hc 0 0.026  0.0000
   9   H5        0.7090    0.2270   -2.2620   hc 0 0.026  0.0000
  10   H6        1.7010   -0.9250   -0.2580   hc 0 0.026  0.0000
  11   H7        1.6990    0.6390    0.6420   hc 0 0.026  0.0000
  12   H8       -0.2920   -0.7430    1.2320   hc 0 0.023  0.0000
  13   H9       -0.8030    0.7810    0.3960   hc 0 0.023  0.0000
  14  H10       -0.8010   -0.7880   -0.5060   hc 0 0.023  0.0000
@<TRIPOS>BOND
    1     1     2  1
    2     1     5  1
    3     1     6  1
    4     1     7  1
    5     2     3  1
    6     2     8  1
    7     2     9  1
    8     3     4  1
    9     3    10  1
   10     3    11  1
   11     4    12  1
   12     4    13  1
   13     4    14  1

@<TRIPOS>MOLECULE
MOL
   14   13    0    0    0




@<TRIPOS>ATOM
   1   C1        2.6690    1.0520   -1.8840   c3 0 -0.06  0.0000
   2   C2        1.2420    0.8100   -1.4650   c3 0 -0.05  0.0000
   3   C3        1.1660    0.0560   -0.1540   c3 0 -0.05  0.0000
   4   C4       -0.2610   -0.1870    0.2650   c3 0 -0.06  0.0000
   5   H1        2.7545    1.0708   -2.9979   hc 0 0.023  0.0000
   6   H2        3.0363    2.0291   -1.4881   hc 0 0.023  0.0000
   7   H3        3.3310    0.2414   -1.4929   hc 0 0.023  0.0000
   8   H4        0.7070    1.7910   -1.3620   hc 0 0.026  0.0000
   9   H5        0.7090    0.2270   -2.2620   hc 0 0.026  0.0000
  10   H6        1.7010   -0.9250   -0.2580   hc 0 0.026  0.0000
  11   H7        1.6990    0.6390    0.6420   hc 0 0.026  0.0000
  12   H8       -0.2920   -0.7430    1.2320   hc 0 0.023  0.0000
  13   H9       -0.8030    0.7810    0.3960   hc 0 0.023  0.0000
  14  H10       -0.8010   -0.7880   -0.5060   hc 0 0.023  0.0000
@<TRIPOS>BOND
    1     1     2  1
    2     1     5  1
    3     1     6  1
    4     1     7  1
    5     2     3  1
    6     2     8  1
    7     2     9  1
    8     3     4  1
    9     3    10  1
   10     3    11  1
   11     4    12  1
   12     4    13  1
   13     4    14  1

@<TRIPOS>MOLECULE
MOL
   14   13    0    0    0




@<TRIPOS>ATOM
   1   C1        2.6690    1.0520   -1.8840   c3 0 -0.06  0.0000
   2   C2        1.2420    0.8100   -1.4650   c3 0 -0.05  0.0000
   3   C3        1.1660    0.0560   -0.1540   c3 0 -0.05  0.0000
   4   C4       -0.2610   -0.1870    0.2650   c3 0 -0.06  0.0000
   5   H1        2.7515    1.0888   -2.9977   hc 0 0.023  0.0000
   6   H2        3.0422    2.0206   -1.4731   hc 0 0.023  0.0000
   7   H3        3.3281    0.2318   -1.5083   hc 0 0.023  0.0000
   8   H4        0.7070    1.7910   -1.3620   hc 0 0.026  0.0000
   9   H5        0.7090    0.2270   -2.2620   hc 0 0.026  0.0000
  10   H6        1.7010   -0.9250   -0.2580   hc 0 0.026  0.0000
  11   H7        1.6990    0.6390    0.6420   hc 0 0.026  0.0000
  12   H8       -0.2920   -0.7430    1.2320   hc 0 0.023  0.0000
  13   H9       -0.8030    0.7810    0.3960   hc 0 0.023  0.0000
  14  H10       -0.8010   -0.7880   -0.5060   hc 0 0.023  0.0000
@<TRIPOS>BOND
    1     1     2  1
    2     1     5  1
    3     1     6  1
    4     1     7  1
    5     2     3  1
    6     2     8  1
    7     2     9  1
    8     3     4  1
    9     3    10  1
   10     3    11  1
   11     4    12  1
   12     4    13  1
   13     4    14  1

@<TRIPOS>MOLECULE
MOL
   14   13    0    0    0




@<TRIPOS>ATOM
   1   C1        2.6690    1.0520   -1.8840   c3 0 -0.06  0.0000
   2   C2        1.2420    0.8100   -1.4650   c3 0 -0.05  0.0000
   3   C3        1.1660    0.0560   -0.1540   c3 0 -0.05  0.0000
   4   C4       -0.2610   -0.1870    0.2650   c3 0 -0.06  0.0000
   5   H1        2.7486    1.1068   -2.9972   hc 0 0.023  0.0000
   6   H2        3.0480    2.0118   -1.4582   hc 0 0.023  0.0000
   7   H3        3.3251    0.2226   -1.5237   hc 0 0.023  0.0000
   8   H4        0.7070    1.7910   -1.3620   hc 0 0.026  0.0000
   9   H5        0.7090    0.2270   -2.2620   hc 0 0.026  0.0000
  10   H6        1.7010   -0.9250   -0.2580   hc 0 0.026  0.0000
  11   H7        1.6990    0.6390    0.6420   hc 0 0.026  0.0000
  12   H8       -0.2920   -0.7430    1.2320   hc 0 0.023  0.0000
  13   H9       -0.8030    0.7810    0.3960   hc 0 0.023  0.0000
  14  H10       -0.8010   -0.7880   -0.5060   hc 0 0.023  0.0000
@<TRIPOS>BOND
    1     1     2  1
    2     1     5  1
    3     1     6  1
    4     1     7  1
    5     2     3  1
    6     2     8  1
    7     2     9  1
    8     3     4  1
    9     3    10  1
   10     3    11  1
   11     4    12  1
   12     4    13  1
   13     4    14  1

@<TRIPOS>MOLECULE
MOL
   14   13    0    0    0




@<TRIPOS>ATOM
   1   C1        2.6690    1.0520   -1.8840   c3 0 -0.06  0.0000
   2   C2        1.2420    0.8100   -1.4650   c3 0 -0.05  0.0000
   3   C3        1.1660    0.0560   -0.1540   c3 0 -0.05  0.0000
   4   C4       -0.2610   -0.1870    0.2650   c3 0 -0.06  0.0000
   5   H1        2.7458    1.1248   -2.9963   hc 0 0.023  0.0000
   6   H2        3.0539    2.0028   -1.4435   hc 0 0.023  0.0000
   7   H3        3.3221    0.2136   -1.5394   hc 0 0.023  0.0000
   8   H4        0.7070    1.7910   -1.3620   hc 0 0.026  0.0000
   9   H5        0.7090    0.2270   -2.2620   hc 0 0.026  0.0000
  10   H6        1.7010   -0.9250   -0.2580   hc 0 0.026  0.0000
  11   H7        1.6990    0.6390    0.6420   hc 0 0.026  0.0000
  12   H8       -0.2920   -0.7430    1.2320   hc 0 0.023  0.0000
  13   H9       -0.8030    0.7810    0.3960   hc 0 0.023  0.0000
  14  H10       -0.8010   -0.7880   -0.5060   hc 0 0.023  0.0000
@<TRIPOS>BOND
    1     1     2  1
    2     1     5  1
    3     1     6  1
    4     1     7  1
    5     2     3  1
    6     2     8  1
    7     2     9  1
    8     3     4  1
    9     3    10  1
   10     3    11  1
   11     4    12  1
   12     4    13  1
   13     4    14  1

@<TRIPOS>MOLECULE
MOL
   14   13    0    0    0




@<TRIPOS>ATOM
   1   C1        2.6690    1.0520   -1.8840   c3 0 -0.06  0.0000
   2   C2        1.2420    0.8100   -1.4650   c3 0 -0.05  0.0000
   3   C3        1.1660    0.0560   -0.1540   c3 0 -0.05  0.0000
   4   C4       -0.2610   -0.1870    0.2650   c3 0 -0.06  0.0000
   5   H1        2.7430    1.1428   -2.9952   hc 0 0.023  0.0000
   6   H2        3.0597    1.9936   -1.4289   hc 0 0.023  0.0000
   7   H3        3.3189    0.2048   -1.5551   hc 0 0.023  0.0000
   8   H4        0.7070    1.7910   -1.3620   hc 0 0.026  0.0000
   9   H5        0.7090    0.2270   -2.2620   hc 0 0.026  0.0000
  10   H6        1.7010   -0.9250   -0.2580   hc 0 0.026  0.0000
  11   H7        1.6990    0.6390    0.6420   hc 0 0.026  0.0000
  12   H8       -0.2920   -0.7430    1.2320   hc 0 0.023  0.0000
  13   H9       -0.8030    0.7810    0.3960   hc 0 0.023  0.0000
  14  H10       -0.8010   -0.7880   -0.5060   hc 0 0.023  0.0000
@<TRIPOS>BOND
    1     1     2  1
    2     1     5  1
    3     1     6  1
    4     1     7  1
    5     2     3  1
    6     2     8  1
    7     2     9  1
    8     3     4  1
    9     3    10  1
   10     3    11  1
   11     4    12  1
   12     4    13  1
   13     4    14  1

@<TRIPOS>MOLECULE
MOL
   14   13    0    0    0




@<TRIPOS>ATOM
   1   C1        2.6690    1.0520   -1.8840   c3 0 -0.06  0.0000
   2   C2        1.2420    0.8100   -1.4650   c3 0 -0.05  0.0000
   3   C3        1.1660    0.0560   -0.1540   c3 0 -0.05  0.0000
   4   C4       -0.2610   -0.1870    0.2650   c3 0 -0.06  0.0000
   5   H1        2.7404    1.1608   -2.9937   hc 0 0.023  0.0000
   6   H2        3.0656    1.9840   -1.4145   hc 0 0.023  0.0000
   7   H3        3.3157    0.1964   -1.5710   hc 0 0.023  0.0000
   8   H4        0.7070    1.7910   -1.3620   hc 0 0.026  0.0000
   9   H5        0.7090    0.2270   -2.2620   hc 0 0.026  0.0000
  10   H6        1.7010   -0.9250   -0.2580   hc 0 0.026  0.0000
  11   H7        1.6990    0.6390    0.6420   hc 0 0.026  0.0000
  12   H8       -0.2920   -0.7430    1.2320   hc 0 0.023  0.0000
  13   H9       -0.8030    0.7810    0.3960   hc 0 0.023  0.0000
  14  H10       -0.8010   -0.7880   -0.5060   hc 0 0.023  0.0000
@<TRIPOS>BOND
    1     1     2  1
    2     1     5  1
    3     1     6  1
    4     1     7  1
    5     2     3  1
    6     2     8  1
    7     2     9  1
    8     3     4  1
    9     3    10  1
   10     3    11  1
   11     4    12  1
   12     4    13  1
   13     4    14  1

@<TRIPOS>MOLECULE
MOL
   14   13    0    0    0




@<TRIPOS>ATOM
   1   C1        2.6690    1.0520   -1.8840   c3 0 -0.06  0.0000
   2   C2        1.2420    0.8100   -1.4650   c3 0 -0.05  0.0000
   3   C3        1.1660    0.0560   -0.1540   c3 0 -0.05  0.0000
   4   C4       -0.2610   -0.1870    0.2650   c3 0 -0.06  0.0000
   5   H1        2.7379    1.1788   -2.9920   hc 0 0.023  0.0000
   6   H2        3.0714    1.9742   -1.4003   hc 0 0.023  0.0000
   7   H3        3.3124    0.1882   -1.5870   hc 0 0.023  0.0000
   8   H4        0.7070    1.7910   -1.3620   hc 0 0.026  0.0000
   9   H5        0.7090    0.2270   -2.2620   hc 0 0.026  0.0000
  10   H6        1.7010   -0.9250   -0.2580   hc 0 0.026  0.0000
  11   H7        1.6990    0.6390    0.6420   hc 0 0.026  0.0000
  12   H8       -0.2920   -0.7430    1.2320   hc 0 0.023  0.0000
  13   H9       -0.8030    0.7810    0.3960   hc 0 0.023  0.0000
  14  H10       -0.8010   -0.7880   -0.5060   hc 0 0.023  0.0000
@<TRIPOS>BOND
    1     1     2  1
    2     1     5  1
    3     1     6  1
    4     1     7  1
    5     2     3  1
    6     2     8  1
    7     2     9  1
    8     3     4  1
    9     3    10  1
   10     3    11  1
   11     4    12  1
   12     4    13  1
   13     4    14  1

@<TRIPOS>MOLECULE
MOL
   14   13    0    0    0




@<TRIPOS>ATOM
   1   C1        2.6690    1.0520   -1.8840   c3 0 -0.06  0.0000
   2   C2        1.2420    0.8100   -1.4650   c3 0 -0.05  0.0000
   3   C3        1.1660    0.0560   -0.1540   c3 0 -0.05  0.0000
   4   C4       -0.2610   -0.1870    0.2650   c3 0 -0.06  0.0000
   5   H1        2.7354    1.1968   -2.9899   hc 0 0.023  0.0000
   6   H2        3.0772    1.9641   -1.3863   hc 0 0.023  0.0000
   7   H3        3.3090    0.1803   -1.6032   hc 0 0.023  0.0000
   8   H4        0.7070    1.7910   -1.3620   hc 0 0.026  0.0000
   9   H5        0.7090    0.2270   -2.2620   hc 0 0.026  0.0000
  10   H6        1.7010   -0.9250   -0.2580   hc 0 0.026  0.0000
  11   H7        1.6990    0.6390    0.6420   hc 0 0.026  0.0000
  12   H8       -0.2920   -0.7430    1.2320   hc 0 0.023  0.0000
  13   H9       -0.8030    0.7810    0.3960   hc 0 0.023  0.0000
  14  H10       -0.8010   -0.7880   -0.5060   hc 0 0.023  0.0000
@<TRIPOS>BOND
    1     1     2  1
    2     1     5  1
    3     1     6  1
    4     1     7  1
    5     2     3  1
    6     2     8  1
    7     2     9  1
    8     3     4  1
    9     3    10  1
   10     3    11  1
   11     4    12  1
   12     4    13  1
   13     4    14  1

@<TRIPOS>MOLECULE
MOL
   14   13    0    0    0




@<TRIPOS>ATOM
   1   C1        2.6690    1.0520   -1.8840   c3 0 -0.06  0.0000
   2   C2        1.2420    0.8100   -1.4650   c3 0 -0.05  0.0000
   3   C3        1.1660    0.0560   -0.1540   c3 0 -0.05  0.0000
   4   C4       -0.2610   -0.1870    0.2650   c3 0 -0.06  0.0000
   5   H1        2.7331    1.2147   -2.9876   hc 0 0.023  0.0000
   6   H2        3.0830    1.9538   -1.3725   hc 0 0.023  0.0000
   7   H3        3.3055    0.1727   -1.6194   hc 0 0.023  0.0000
   8   H4        0.7070    1.7910   -1.3620   hc 0 0.026  0.0000
   9   H5        0.7090    0.2270   -2.2620   hc 0 0.026  0.0000
  10   H6        1.7010   -0.9250   -0.2580   hc 0 0.026  0.0000
  11   H7        1.6990    0.6390    0.6420   hc 0 0.026  0.0000
  12   H8       -0.2920   -0.7430    1.2320   hc 0 0.023  0.0000
  13   H9       -0.8030    0.7810    0.3960   hc 0 0.023  0.0000
  14  H10       -0.8010   -0.7880   -0.5060   hc 0 0.023  0.0000
@<TRIPOS>BOND
    1     1     2  1
    2     1     5  1
    3     1     6  1
    4     1     7  1
    5     2     3  1
    6     2     8  1
    7     2     9  1
    8     3     4  1
    9     3    10  1
   10     3    11  1
   11     4    12  1
   12     4    13  1
   13     4    14  1

@<TRIPOS>MOLECULE
MOL
   14   13    0    0    0




@<TRIPOS>ATOM
   1   C1        2.6690    1.0520   -1.8840   c3 0 -0.06  0.0000
   2   C2        1.2420    0.8100   -1.4650   c3 0 -0.05  0.0000
   3   C3        1.1660    0.0560   -0.1540   c3 0 -0.05  0.0000
   4   C4       -0.2610   -0.1870    0.2650   c3 0 -0.06  0.0000
   5   H1        2.7308    1.2327   -2.9849   hc 0 0.023  0.0000
   6   H2        3.0888    1.9432   -1.3588   hc 0 0.023  0.0000
   7   H3        3.3019    0.1654   -1.6358   hc 0 0.023  0.0000
   8   H4        0.7070    1.7910   -1.3620   hc 0 0.026  0.0000
   9   H5        0.7090    0.2270   -2.2620   hc 0 0.026  0.0000
  10   H6        1.7010   -0.9250   -0.2580   hc 0 0.026  0.0000
  11   H7        1.6990    0.6390    0.6420   hc 0 0.026  0.0000
  12   H8       -0.2920   -0.7430    1.2320   hc 0 0.023  0.0000
  13   H9       -0.8030    0.7810    0.3960   hc 0 0.023  0.0000
  14  H10       -0.8010   -0.7880   -0.5060   hc 0 0.023  0.0000
@<TRIPOS>BOND
    1     1     2  1
    2     1     5  1
    3     1     6  1
    4     1     7  1
    5     2     3  1
    6     2     8  1
    7     2     9  1
    8     3     4  1
    9     3    10  1
   10     3    11  1
   11     4    12  1
   12     4    13  1
   13     4    14  1

@<TRIPOS>MOLECULE
MOL
   14   13    0    0    0




@<TRIPOS>ATOM
   1   C1        2.6690    1.0520   -1.8840   c3 0 -0.06  0.0000
   2   C2        1.2420    0.8100   -1.4650   c3 0 -0.05  0.0000
   3   C3        1.1660    0.0560   -0.1540   c3 0 -0.05  0.0000
   4   C4       -0.2610   -0.1870    0.2650   c3 0 -0.06  0.0000
   5   H1        2.7287    1.2505   -2.9819   hc 0 0.023  0.0000
   6   H2        3.0946    1.9323   -1.3454   hc 0 0.023  0.0000
   7   H3        3.2983    0.1584   -1.6523   hc 0 0.023  0.0000
   8   H4        0.7070    1.7910   -1.3620   hc 0 0.026  0.0000
   9   H5        0.7090    0.2270   -2.2620   hc 0 0.026  0.0000
  10   H6        1.7010   -0.9250   -0.2580   hc 0 0.026  0.0000
  11   H7        1.6990    0.6390    0.6420   hc 0 0.026  0.0000
  12   H8       -0.2920   -0.7430    1.2320   hc 0 0.023  0.0000
  13   H9       -0.8030    0.7810    0.3960   hc 0 0.023  0.0000
  14  H10       -0.8010   -0.7880   -0.5060   hc 0 0.023  0.0000
@<TRIPOS>BOND
    1     1     2  1
    2     1     5  1
    3     1     6  1
    4     1     7  1
    5     2     3  1
    6     2     8  1
    7     2     9  1
    8     3     4  1
    9     3    10  1
   10     3    11  1
   11     4    12  1
   12     4    13  1
   13     4    14  1

@<TRIPOS>MOLECULE
MOL
   14   13    0    0    0




@<TRIPOS>ATOM
   1   C1        2.6690    1.0520   -1.8840   c3 0 -0.06  0.0000
   2   C2        1.2420    0.8100   -1.4650   c3 0 -0.05  0.0000
   3   C3        1.1660    0.0560   -0.1540   c3 0 -0.05  0.0000
   4   C4       -0.2610   -0.1870    0.2650   c3 0 -0.06  0.0000
   5   H1        2.7266    1.2684   -2.9787   hc 0 0.023  0.0000
   6   H2        3.1004    1.9212   -1.3321   hc 0 0.023  0.0000
   7   H3        3.2945    0.1516   -1.6689   hc 0 0.023  0.0000
   8   H4        0.7070    1.7910   -1.3620   hc 0 0.026  0.0000
   9   H5        0.7090    0.2270   -2.2620   hc 0 0.026  0.0000
  10   H6        1.7010   -0.9250   -0.2580   hc 0 0.026  0.0000
  11   H7        1.6990    0.6390    0.6420   hc 0 0.026  0.0000
  12   H8       -0.2920   -0.7430    1.2320   hc 0 0.023  0.0000
  13   H9       -0.8030    0.7810    0.3960   hc 0 0.023  0.0000
  14  H10       -0.8010   -0.7880   -0.5060   hc 0 0.023  0.0000
@<TRIPOS>BOND
    1     1     2  1
    2     1     5  1
    3     1     6  1
    4     1     7  1
    5     2     3  1
    6     2     8  1
    7     2     9  1
    8     3     4  1
    9     3    10  1
   10     3    11  1
   11     4    12  1
   12     4    13  1
   13     4    14  1

@<TRIPOS>MOLECULE
MOL
   14   13    0    0    0




@<TRIPOS>ATOM
   1   C1        2.6690    1.0520   -1.8840   c3 0 -0.06  0.0000
   2   C2        1.2420    0.8100   -1.4650   c3 0 -0.05  0.0000
   3   C3        1.1660    0.0560   -0.1540   c3 0 -0.05  0.0000
   4   C4       -0.2610   -0.1870    0.2650   c3 0 -0.06  0.0000
   5   H1        2.7246    1.2862   -2.9751   hc 0 0.023  0.0000
   6   H2        3.1062    1.9099   -1.3190   hc 0 0.023  0.0000
   7   H3        3.2907    0.1452   -1.6856   hc 0 0.023  0.0000
   8   H4        0.7070    1.7910   -1.3620   hc 0 0.026  0.0000
   9   H5        0.7090    0.2270   -2.2620   hc 0 0.026  0.0000
  10   H6        1.7010   -0.9250   -0.2580   hc 0 0.026  0.0000
  11   H7        1.6990    0.6390    0.6420   hc 0 0.026  0.0000
  12   H8       -0.2920   -0.7430    1.2320   hc 0 0.023  0.0000
  13   H9       -0.8030    0.7810    0.3960   hc 0 0.023  0.0000
  14  H10       -0.8010   -0.7880   -0.5060   hc 0 0.023  0.0000
@<TRIPOS>BOND
    1     1     2  1
    2     1     5  1
    3     1     6  1
    4     1     7  1
    5     2     3  1
    6     2     8  1
    7     2     9  1
    8     3     4  1
    9     3    10  1
   10     3    11  1
   11     4    12  1
   12     4    13  1
   13     4    14  1

@<TRIPOS>MOLECULE
MOL
   14   13    0    0    0




@<TRIPOS>ATOM
   1   C1        2.6690    1.0520   -1.8840   c3 0 -0.06  0.0000
   2   C2        1.2420    0.8100   -1.4650   c3 0 -0.05  0.0000
   3   C3        1.1660    0.0560   -0.1540   c3 0 -0.05  0.0000
   4   C4       -0.2610   -0.1870    0.2650   c3 0 -0.06  0.0000
   5   H1        2.7227    1.3039   -2.9712   hc 0 0.023  0.0000
   6   H2        3.1119    1.8983   -1.3062   hc 0 0.023  0.0000
   7   H3        3.2869    0.1390   -1.7023   hc 0 0.023  0.0000
   8   H4        0.7070    1.7910   -1.3620   hc 0 0.026  0.0000
   9   H5        0.7090    0.2270   -2.2620   hc 0 0.026  0.0000
  10   H6        1.7010   -0.9250   -0.2580   hc 0 0.026  0.0000
  11   H7        1.6990    0.6390    0.6420   hc 0 0.026  0.0000
  12   H8       -0.2920   -0.7430    1.2320   hc 0 0.023  0.0000
  13   H9       -0.8030    0.7810    0.3960   hc 0 0.023  0.0000
  14  H10       -0.8010   -0.7880   -0.5060   hc 0 0.023  0.0000
@<TRIPOS>BOND
    1     1     2  1
    2     1     5  1
    3     1     6  1
    4     1     7  1
    5     2     3  1
    6     2     8  1
    7     2     9  1
    8     3     4  1
    9     3    10  1
   10     3    11  1
   11     4    12  1
   12     4    13  1
   13     4    14  1

@<TRIPOS>MOLECULE
MOL
   14   13    0    0    0




@<TRIPOS>ATOM
   1   C1        2.6690    1.0520   -1.8840   c3 0 -0.06  0.0000
   2   C2        1.2420    0.8100   -1.4650   c3 0 -0.05  0.0000
   3   C3        1.1660    0.0560   -0.1540   c3 0 -0.05  0.0000
   4   C4       -0.2610   -0.1870    0.2650   c3 0 -0.06  0.0000
   5   H1        2.7210    1.3216   -2.9671   hc 0 0.023  0.0000
   6   H2        3.1176    1.8865   -1.2936   hc 0 0.023  0.0000
   7   H3        3.2829    0.1332   -1.7192   hc 0 0.023  0.0000
   8   H4        0.7070    1.7910   -1.3620   hc 0 0.026  0.0000
   9   H5        0.7090    0.2270   -2.2620   hc 0 0.026  0.0000
  10   H6        1.7010   -0.9250   -0.2580   hc 0 0.026  0.0000
  11   H7        1.6990    0.6390    0.6420   hc 0 0.026  0.0000
  12   H8       -0.2920   -0.7430    1.2320   hc 0 0.023  0.0000
  13   H9       -0.8030    0.7810    0.3960   hc 0 0.023  0.0000
  14  H10       -0.8010   -0.7880   -0.5060   hc 0 0.023  0.0000
@<TRIPOS>BOND
    1     1     2  1
    2     1     5  1
    3     1     6  1
    4     1     7  1
    5     2     3  1
    6     2     8  1
    7     2     9  1
    8     3     4  1
    9     3    10  1
   10     3    11  1
   11     4    12  1
   12     4    13  1
   13     4    14  1

@<TRIPOS>MOLECULE
MOL
   14   13    0    0    0




@<TRIPOS>ATOM
   1   C1        2.6690    1.0520   -1.8840   c3 0 -0.06  0.0000
   2   C2        1.2420    0.8100   -1.4650   c3 0 -0.05  0.0000
   3   C3        1.1660    0.0560   -0.1540   c3 0 -0.05  0.0000
   4   C4       -0.2610   -0.1870    0.2650   c3 0 -0.06  0.0000
   5   H1        2.7193    1.3392   -2.9626   hc 0 0.023  0.0000
   6   H2        3.1233    1.8745   -1.2811   hc 0 0.023  0.0000
   7   H3        3.2789    0.1276   -1.7361   hc 0 0.023  0.0000
   8   H4        0.7070    1.7910   -1.3620   hc 0 0.026  0.0000
   9   H5        0.7090    0.2270   -2.2620   hc 0 0.026  0.0000
  10   H6        1.7010   -0.9250   -0.2580   hc 0 0.026  0.0000
  11   H7        1.6990    0.6390    0.6420   hc 0 0.026  0.0000
  12   H8       -0.2920   -0.7430    1.2320   hc 0 0.023  0.0000
  13   H9       -0.8030    0.7810    0.3960   hc 0 0.023  0.0000
  14  H10       -0.8010   -0.7880   -0.5060   hc 0 0.023  0.0000
@<TRIPOS>BOND
    1     1     2  1
    2     1     5  1
    3     1     6  1
    4     1     7  1
    5     2     3  1
    6     2     8  1
    7     2     9  1
    8     3     4  1
    9     3    10  1
   10     3    11  1
   11     4    12  1
   12     4    13  1
   13     4    14  1

@<TRIPOS>MOLECULE
MOL
   14   13    0    0    0




@<TRIPOS>ATOM
   1   C1        2.6690    1.0520   -1.8840   c3 0 -0.06  0.0000
   2   C2        1.2420    0.8100   -1.4650   c3 0 -0.05  0.0000
   3   C3        1.1660    0.0560   -0.1540   c3 0 -0.05  0.0000
   4   C4       -0.2610   -0.1870    0.2650   c3 0 -0.06  0.0000
   5   H1        2.7177    1.3567   -2.9579   hc 0 0.023  0.0000
   6   H2        3.1290    1.8622   -1.2689   hc 0 0.023  0.0000
   7   H3        3.2748    0.1224   -1.7532   hc 0 0.023  0.0000
   8   H4        0.7070    1.7910   -1.3620   hc 0 0.026  0.0000
   9   H5        0.7090    0.2270   -2.2620   hc 0 0.026  0.0000
  10   H6        1.7010   -0.9250   -0.2580   hc 0 0.026  0.0000
  11   H7        1.6990    0.6390    0.6420   hc 0 0.026  0.0000
  12   H8       -0.2920   -0.7430    1.2320   hc 0 0.023  0.0000
  13   H9       -0.8030    0.7810    0.3960   hc 0 0.023  0.0000
  14  H10       -0.8010   -0.7880   -0.5060   hc 0 0.023  0.0000
@<TRIPOS>BOND
    1     1     2  1
    2     1     5  1
    3     1     6  1
    4     1     7  1
    5     2     3  1
    6     2     8  1
    7     2     9  1
    8     3     4  1
    9     3    10  1
   10     3    11  1
   11     4    12  1
   12     4    13  1
   13     4    14  1

@<TRIPOS>MOLECULE
MOL
   14   13    0    0    0




@<TRIPOS>ATOM
   1   C1        2.6690    1.0520   -1.8840   c3 0 -0.06  0.0000
   2   C2        1.2420    0.8100   -1.4650   c3 0 -0.05  0.0000
   3   C3        1.1660    0.0560   -0.1540   c3 0 -0.05  0.0000
   4   C4       -0.2610   -0.1870    0.2650   c3 0 -0.06  0.0000
   5   H1        2.7162    1.3742   -2.9528   hc 0 0.023  0.0000
   6   H2        3.1346    1.8497   -1.2569   hc 0 0.023  0.0000
   7   H3        3.2706    0.1174   -1.7703   hc 0 0.023  0.0000
   8   H4        0.7070    1.7910   -1.3620   hc 0 0.026  0.0000
   9   H5        0.7090    0.2270   -2.2620   hc 0 0.026  0.0000
  10   H6        1.7010   -0.9250   -0.2580   hc 0 0.026  0.0000
  11   H7        1.6990    0.6390    0.6420   hc 0 0.026  0.0000
  12   H8       -0.2920   -0.7430    1.2320   hc 0 0.023  0.0000
  13   H9       -0.8030    0.7810    0.3960   hc 0 0.023  0.0000
  14  H10       -0.8010   -0.7880   -0.5060   hc 0 0.023  0.0000
@<TRIPOS>BOND
    1     1     2  1
    2     1     5  1
    3     1     6  1
    4     1     7  1
    5     2     3  1
    6     2     8  1
    7     2     9  1
    8     3     4  1
    9     3    10  1
   10     3    11  1
   11     4    12  1
   12     4    13  1
   13     4    14  1

@<TRIPOS>MOLECULE
MOL
   14   13    0    0    0




@<TRIPOS>ATOM
   1   C1        2.6690    1.0520   -1.8840   c3 0 -0.06  0.0000
   2   C2        1.2420    0.8100   -1.4650   c3 0 -0.05  0.0000
   3   C3        1.1660    0.0560   -0.1540   c3 0 -0.05  0.0000
   4   C4       -0.2610   -0.1870    0.2650   c3 0 -0.06  0.0000
   5   H1        2.7148    1.3916   -2.9475   hc 0 0.023  0.0000
   6   H2        3.1402    1.8369   -1.2452   hc 0 0.023  0.0000
   7   H3        3.2663    0.1128   -1.7874   hc 0 0.023  0.0000
   8   H4        0.7070    1.7910   -1.3620   hc 0 0.026  0.0000
   9   H5        0.7090    0.2270   -2.2620   hc 0 0.026  0.0000
  10   H6        1.7010   -0.9250   -0.2580   hc 0 0.026  0.0000
  11   H7        1.6990    0.6390    0.6420   hc 0 0.026  0.0000
  12   H8       -0.2920   -0.7430    1.2320   hc 0 0.023  0.0000
  13   H9       -0.8030    0.7810    0.3960   hc 0 0.023  0.0000
  14  H10       -0.8010   -0.7880   -0.5060   hc 0 0.023  0.0000
@<TRIPOS>BOND
    1     1     2  1
    2     1     5  1
    3     1     6  1
    4     1     7  1
    5     2     3  1
    6     2     8  1
    7     2     9  1
    8     3     4  1
    9     3    10  1
   10     3    11  1
   11     4    12  1
   12     4    13  1
   13     4    14  1

@<TRIPOS>MOLECULE
MOL
   14   13    0    0    0




@<TRIPOS>ATOM
   1   C1        2.6690    1.0520   -1.8840   c3 0 -0.06  0.0000
   2   C2        1.2420    0.8100   -1.4650   c3 0 -0.05  0.0000
   3   C3        1.1660    0.0560   -0.1540   c3 0 -0.05  0.0000
   4   C4       -0.2610   -0.1870    0.2650   c3 0 -0.06  0.0000
   5   H1        2.7136    1.4089   -2.9419   hc 0 0.023  0.0000
   6   H2        3.1458    1.8240   -1.2336   hc 0 0.023  0.0000
   7   H3        3.2620    0.1084   -1.8047   hc 0 0.023  0.0000
   8   H4        0.7070    1.7910   -1.3620   hc 0 0.026  0.0000
   9   H5        0.7090    0.2270   -2.2620   hc 0 0.026  0.0000
  10   H6        1.7010   -0.9250   -0.2580   hc 0 0.026  0.0000
  11   H7        1.6990    0.6390    0.6420   hc 0 0.026  0.0000
  12   H8       -0.2920   -0.7430    1.2320   hc 0 0.023  0.0000
  13   H9       -0.8030    0.7810    0.3960   hc 0 0.023  0.0000
  14  H10       -0.8010   -0.7880   -0.5060   hc 0 0.023  0.0000
@<TRIPOS>BOND
    1     1     2  1
    2     1     5  1
    3     1     6  1
    4     1     7  1
    5     2     3  1
    6     2     8  1
    7     2     9  1
    8     3     4  1
    9     3    10  1
   10     3    11  1
   11     4    12  1
   12     4    13  1
   13     4    14  1

@<TRIPOS>MOLECULE
MOL
   14   13    0    0    0




@<TRIPOS>ATOM
   1   C1        2.6690    1.0520   -1.8840   c3 0 -0.06  0.0000
   2   C2        1.2420    0.8100   -1.4650   c3 0 -0.05  0.0000
   3   C3        1.1660    0.0560   -0.1540   c3 0 -0.05  0.0000
   4   C4       -0.2610   -0.1870    0.2650   c3 0 -0.06  0.0000
   5   H1        2.7124    1.4262   -2.9359   hc 0 0.023  0.0000
   6   H2        3.1514    1.8108   -1.2223   hc 0 0.023  0.0000
   7   H3        3.2576    0.1044   -1.8220   hc 0 0.023  0.0000
   8   H4        0.7070    1.7910   -1.3620   hc 0 0.026  0.0000
   9   H5        0.7090    0.2270   -2.2620   hc 0 0.026  0.0000
  10   H6        1.7010   -0.9250   -0.2580   hc 0 0.026  0.0000
  11   H7        1.6990    0.6390    0.6420   hc 0 0.026  0.0000
  12   H8       -0.2920   -0.7430    1.2320   hc 0 0.023  0.0000
  13   H9       -0.8030    0.7810    0.3960   hc 0 0.023  0.0000
  14  H10       -0.8010   -0.7880   -0.5060   hc 0 0.023  0.0000
@<TRIPOS>BOND
    1     1     2  1
    2     1     5  1
    3     1     6  1
    4     1     7  1
    5     2     3  1
    6     2     8  1
    7     2     9  1
    8     3     4  1
    9     3    10  1
   10     3    11  1
   11     4    12  1
   12     4    13  1
   13     4    14  1

@<TRIPOS>MOLECULE
MOL
   14   13    0    0    0




@<TRIPOS>ATOM
   1   C1        2.6690    1.0520   -1.8840   c3 0 -0.06  0.0000
   2   C2        1.2420    0.8100   -1.4650   c3 0 -0.05  0.0000
   3   C3        1.1660    0.0560   -0.1540   c3 0 -0.05  0.0000
   4   C4       -0.2610   -0.1870    0.2650   c3 0 -0.06  0.0000
   5   H1        2.7113    1.4433   -2.9297   hc 0 0.023  0.0000
   6   H2        3.1569    1.7974   -1.2112   hc 0 0.023  0.0000
   7   H3        3.2531    0.1007   -1.8393   hc 0 0.023  0.0000
   8   H4        0.7070    1.7910   -1.3620   hc 0 0.026  0.0000
   9   H5        0.7090    0.2270   -2.2620   hc 0 0.026  0.0000
  10   H6        1.7010   -0.9250   -0.2580   hc 0 0.026  0.0000
  11   H7        1.6990    0.6390    0.6420   hc 0 0.026  0.0000
  12   H8       -0.2920   -0.7430    1.2320   hc 0 0.023  0.0000
  13   H9       -0.8030    0.7810    0.3960   hc 0 0.023  0.0000
  14  H10       -0.8010   -0.7880   -0.5060   hc 0 0.023  0.0000
@<TRIPOS>BOND
    1     1     2  1
    2     1     5  1
    3     1     6  1
    4     1     7  1
    5     2     3  1
    6     2     8  1
    7     2     9  1
    8     3     4  1
    9     3    10  1
   10     3    11  1
   11     4    12  1
   12     4    13  1
   13     4    14  1

@<TRIPOS>MOLECULE
MOL
   14   13    0    0    0




@<TRIPOS>ATOM
   1   C1        2.6690    1.0520   -1.8840   c3 0 -0.06  0.0000
   2   C2        1.2420    0.8100   -1.4650   c3 0 -0.05  0.0000
   3   C3        1.1660    0.0560   -0.1540   c3 0 -0.05  0.0000
   4   C4       -0.2610   -0.1870    0.2650   c3 0 -0.06  0.0000
   5   H1        2.7103    1.4603   -2.9232   hc 0 0.023  0.0000
   6   H2        3.1624    1.7838   -1.2004   hc 0 0.023  0.0000
   7   H3        3.2486    0.0973   -1.8567   hc 0 0.023  0.0000
   8   H4        0.7070    1.7910   -1.3620   hc 0 0.026  0.0000
   9   H5        0.7090    0.2270   -2.2620   hc 0 0.026  0.0000
  10   H6        1.7010   -0.9250   -0.2580   hc 0 0.026  0.0000
  11   H7        1.6990    0.6390    0.6420   hc 0 0.026  0.0000
  12   H8       -0.2920   -0.7430    1.2320   hc 0 0.023  0.0000
  13   H9       -0.8030    0.7810    0.3960   hc 0 0.023  0.0000
  14  H10       -0.8010   -0.7880   -0.5060   hc 0 0.023  0.0000
@<TRIPOS>BOND
    1     1     2  1
    2     1     5  1
    3     1     6  1
    4     1     7  1
    5     2     3  1
    6     2     8  1
    7     2     9  1
    8     3     4  1
    9     3    10  1
   10     3    11  1
   11     4    12  1
   12     4    13  1
   13     4    14  1

@<TRIPOS>MOLECULE
MOL
   14   13    0    0    0




@<TRIPOS>ATOM
   1   C1        2.6690    1.0520   -1.8840   c3 0 -0.06  0.0000
   2   C2        1.2420    0.8100   -1.4650   c3 0 -0.05  0.0000
   3   C3        1.1660    0.0560   -0.1540   c3 0 -0.05  0.0000
   4   C4       -0.2610   -0.1870    0.2650   c3 0 -0.06  0.0000
   5   H1        2.7094    1.4772   -2.9165   hc 0 0.023  0.0000
   6   H2        3.1678    1.7700   -1.1898   hc 0 0.023  0.0000
   7   H3        3.2440    0.0941   -1.8741   hc 0 0.023  0.0000
   8   H4        0.7070    1.7910   -1.3620   hc 0 0.026  0.0000
   9   H5        0.7090    0.2270   -2.2620   hc 0 0.026  0.0000
  10   H6        1.7010   -0.9250   -0.2580   hc 0 0.026  0.0000
  11   H7        1.6990    0.6390    0.6420   hc 0 0.026  0.0000
  12   H8       -0.2920   -0.7430    1.2320   hc 0 0.023  0.0000
  13   H9       -0.8030    0.7810    0.3960   hc 0 0.023  0.0000
  14  H10       -0.8010   -0.7880   -0.5060   hc 0 0.023  0.0000
@<TRIPOS>BOND
    1     1     2  1
    2     1     5  1
    3     1     6  1
    4     1     7  1
    5     2     3  1
    6     2     8  1
    7     2     9  1
    8     3     4  1
    9     3    10  1
   10     3    11  1
   11     4    12  1
   12     4    13  1
   13     4    14  1

@<TRIPOS>MOLECULE
MOL
   14   13    0    0    0




@<TRIPOS>ATOM
   1   C1        2.6690    1.0520   -1.8840   c3 0 -0.06  0.0000
   2   C2        1.2420    0.8100   -1.4650   c3 0 -0.05  0.0000
   3   C3        1.1660    0.0560   -0.1540   c3 0 -0.05  0.0000
   4   C4       -0.2610   -0.1870    0.2650   c3 0 -0.06  0.0000
   5   H1        2.7087    1.4940   -2.9094   hc 0 0.023  0.0000
   6   H2        3.1732    1.7560   -1.1795   hc 0 0.023  0.0000
   7   H3        3.2394    0.0913   -1.8916   hc 0 0.023  0.0000
   8   H4        0.7070    1.7910   -1.3620   hc 0 0.026  0.0000
   9   H5        0.7090    0.2270   -2.2620   hc 0 0.026  0.0000
  10   H6        1.7010   -0.9250   -0.2580   hc 0 0.026  0.0000
  11   H7        1.6990    0.6390    0.6420   hc 0 0.026  0.0000
  12   H8       -0.2920   -0.7430    1.2320   hc 0 0.023  0.0000
  13   H9       -0.8030    0.7810    0.3960   hc 0 0.023  0.0000
  14  H10       -0.8010   -0.7880   -0.5060   hc 0 0.023  0.0000
@<TRIPOS>BOND
    1     1     2  1
    2     1     5  1
    3     1     6  1
    4     1     7  1
    5     2     3  1
    6     2     8  1
    7     2     9  1
    8     3     4  1
    9     3    10  1
   10     3    11  1
   11     4    12  1
   12     4    13  1
   13     4    14  1

@<TRIPOS>MOLECULE
MOL
   14   13    0    0    0




@<TRIPOS>ATOM
   1   C1        2.6690    1.0520   -1.8840   c3 0 -0.06  0.0000
   2   C2        1.2420    0.8100   -1.4650   c3 0 -0.05  0.0000
   3   C3        1.1660    0.0560   -0.1540   c3 0 -0.05  0.0000
   4   C4       -0.2610   -0.1870    0.2650   c3 0 -0.06  0.0000
   5   H1        2.7080    1.5107   -2.9021   hc 0 0.023  0.0000
   6   H2        3.1786    1.7418   -1.1694   hc 0 0.023  0.0000
   7   H3        3.2347    0.0889   -1.9091   hc 0 0.023  0.0000
   8   H4        0.7070    1.7910   -1.3620   hc 0 0.026  0.0000
   9   H5        0.7090    0.2270   -2.2620   hc 0 0.026  0.0000
  10   H6        1.7010   -0.9250   -0.2580   hc 0 0.026  0.0000
  11   H7        1.6990    0.6390    0.6420   hc 0 0.026  0.0000
  12   H8       -0.2920   -0.7430    1.2320   hc 0 0.023  0.0000
  13   H9       -0.8030    0.7810    0.3960   hc 0 0.023  0.0000
  14  H10       -0.8010   -0.7880   -0.5060   hc 0 0.023  0.0000
@<TRIPOS>BOND
    1     1     2  1
    2     1     5  1
    3     1     6  1
    4     1     7  1
    5     2     3  1
    6     2     8  1
    7     2     9  1
    8     3     4  1
    9     3    10  1
   10     3    11  1
   11     4    12  1
   12     4    13  1
   13     4    14  1

@<TRIPOS>MOLECULE
MOL
   14   13    0    0    0




@<TRIPOS>ATOM
   1   C1        2.6690    1.0520   -1.8840   c3 0 -0.06  0.0000
   2   C2        1.2420    0.8100   -1.4650   c3 0 -0.05  0.0000
   3   C3        1.1660    0.0560   -0.1540   c3 0 -0.05  0.0000
   4   C4       -0.2610   -0.1870    0.2650   c3 0 -0.06  0.0000
   5   H1        2.7074    1.5273   -2.8945   hc 0 0.023  0.0000
   6   H2        3.1839    1.7275   -1.1595   hc 0 0.023  0.0000
   7   H3        3.2299    0.0867   -1.9266   hc 0 0.023  0.0000
   8   H4        0.7070    1.7910   -1.3620   hc 0 0.026  0.0000
   9   H5        0.7090    0.2270   -2.2620   hc 0 0.026  0.0000
  10   H6        1.7010   -0.9250   -0.2580   hc 0 0.026  0.0000
  11   H7        1.6990    0.6390    0.6420   hc 0 0.026  0.0000
  12   H8       -0.2920   -0.7430    1.2320   hc 0 0.023  0.0000
  13   H9       -0.8030    0.7810    0.3960   hc 0 0.023  0.0000
  14  H10       -0.8010   -0.7880   -0.5060   hc 0 0.023  0.0000
@<TRIPOS>BOND
    1     1     2  1
    2     1     5  1
    3     1     6  1
    4     1     7  1
    5     2     3  1
    6     2     8  1
    7     2     9  1
    8     3     4  1
    9     3    10  1
   10     3    11  1
   11     4    12  1
   12     4    13  1
   13     4    14  1

@<TRIPOS>MOLECULE
MOL
   14   13    0    0    0




@<TRIPOS>ATOM
   1   C1        2.6690    1.0520   -1.8840   c3 0 -0.06  0.0000
   2   C2        1.2420    0.8100   -1.4650   c3 0 -0.05  0.0000
   3   C3        1.1660    0.0560   -0.1540   c3 0 -0.05  0.0000
   4   C4       -0.2610   -0.1870    0.2650   c3 0 -0.06  0.0000
   5   H1        2.7069    1.5438   -2.8866   hc 0 0.023  0.0000
   6   H2        3.1892    1.7129   -1.1499   hc 0 0.023  0.0000
   7   H3        3.2251    0.0848   -1.9441   hc 0 0.023  0.0000
   8   H4        0.7070    1.7910   -1.3620   hc 0 0.026  0.0000
   9   H5        0.7090    0.2270   -2.2620   hc 0 0.026  0.0000
  10   H6        1.7010   -0.9250   -0.2580   hc 0 0.026  0.0000
  11   H7        1.6990    0.6390    0.6420   hc 0 0.026  0.0000
  12   H8       -0.2920   -0.7430    1.2320   hc 0 0.023  0.0000
  13   H9       -0.8030    0.7810    0.3960   hc 0 0.023  0.0000
  14  H10       -0.8010   -0.7880   -0.5060   hc 0 0.023  0.0000
@<TRIPOS>BOND
    1     1     2  1
    2     1     5  1
    3     1     6  1
    4     1     7  1
    5     2     3  1
    6     2     8  1
    7     2     9  1
    8     3     4  1
    9     3    10  1
   10     3    11  1
   11     4    12  1
   12     4    13  1
   13     4    14  1

@<TRIPOS>MOLECULE
MOL
   14   13    0    0    0




@<TRIPOS>ATOM
   1   C1        2.6690    1.0520   -1.8840   c3 0 -0.06  0.0000
   2   C2        1.2420    0.8100   -1.4650   c3 0 -0.05  0.0000
   3   C3        1.1660    0.0560   -0.1540   c3 0 -0.05  0.0000
   4   C4       -0.2610   -0.1870    0.2650   c3 0 -0.06  0.0000
   5   H1        2.7066    1.5601   -2.8784   hc 0 0.023  0.0000
   6   H2        3.1945    1.6981   -1.1406   hc 0 0.023  0.0000
   7   H3        3.2202    0.0833   -1.9617   hc 0 0.023  0.0000
   8   H4        0.7070    1.7910   -1.3620   hc 0 0.026  0.0000
   9   H5        0.7090    0.2270   -2.2620   hc 0 0.026  0.0000
  10   H6        1.7010   -0.9250   -0.2580   hc 0 0.026  0.0000
  11   H7        1.6990    0.6390    0.6420   hc 0 0.026  0.0000
  12   H8       -0.2920   -0.7430    1.2320   hc 0 0.023  0.0000
  13   H9       -0.8030    0.7810    0.3960   hc 0 0.023  0.0000
  14  H10       -0.8010   -0.7880   -0.5060   hc 0 0.023  0.0000
@<TRIPOS>BOND
    1     1     2  1
    2     1     5  1
    3     1     6  1
    4     1     7  1
    5     2     3  1
    6     2     8  1
    7     2     9  1
    8     3     4  1
    9     3    10  1
   10     3    11  1
   11     4    12  1
   12     4    13  1
   13     4    14  1

@<TRIPOS>MOLECULE
MOL
   14   13    0    0    0




@<TRIPOS>ATOM
   1   C1        2.6690    1.0520   -1.8840   c3 0 -0.06  0.0000
   2   C2        1.2420    0.8100   -1.4650   c3 0 -0.05  0.0000
   3   C3        1.1660    0.0560   -0.1540   c3 0 -0.05  0.0000
   4   C4       -0.2610   -0.1870    0.2650   c3 0 -0.06  0.0000
   5   H1        2.7063    1.5763   -2.8700   hc 0 0.023  0.0000
   6   H2        3.1997    1.6832   -1.1315   hc 0 0.023  0.0000
   7   H3        3.2152    0.0820   -1.9792   hc 0 0.023  0.0000
   8   H4        0.7070    1.7910   -1.3620   hc 0 0.026  0.0000
   9   H5        0.7090    0.2270   -2.2620   hc 0 0.026  0.0000
  10   H6        1.7010   -0.9250   -0.2580   hc 0 0.026  0.0000
  11   H7        1.6990    0.6390    0.6420   hc 0 0.026  0.0000
  12   H8       -0.2920   -0.7430    1.2320   hc 0 0.023  0.0000
  13   H9       -0.8030    0.7810    0.3960   hc 0 0.023  0.0000
  14  H10       -0.8010   -0.7880   -0.5060   hc 0 0.023  0.0000
@<TRIPOS>BOND
    1     1     2  1
    2     1     5  1
    3     1     6  1
    4     1     7  1
    5     2     3  1
    6     2     8  1
    7     2     9  1
    8     3     4  1
    9     3    10  1
   10     3    11  1
   11     4    12  1
   12     4    13  1
   13     4    14  1

@<TRIPOS>MOLECULE
MOL
   14   13    0    0    0




@<TRIPOS>ATOM
   1   C1        2.6690    1.0520   -1.8840   c3 0 -0.06  0.0000
   2   C2        1.2420    0.8100   -1.4650   c3 0 -0.05  0.0000
   3   C3        1.1660    0.0560   -0.1540   c3 0 -0.05  0.0000
   4   C4       -0.2610   -0.1870    0.2650   c3 0 -0.06  0.0000
   5   H1        2.7061    1.5923   -2.8613   hc 0 0.023  0.0000
   6   H2        3.2048    1.6681   -1.1227   hc 0 0.023  0.0000
   7   H3        3.2102    0.0811   -1.9968   hc 0 0.023  0.0000
   8   H4        0.7070    1.7910   -1.3620   hc 0 0.026  0.0000
   9   H5        0.7090    0.2270   -2.2620   hc 0 0.026  0.0000
  10   H6        1.7010   -0.9250   -0.2580   hc 0 0.026  0.0000
  11   H7        1.6990    0.6390    0.6420   hc 0 0.026  0.0000
  12   H8       -0.2920   -0.7430    1.2320   hc 0 0.023  0.0000
  13   H9       -0.8030    0.7810    0.3960   hc 0 0.023  0.0000
  14  H10       -0.8010   -0.7880   -0.5060   hc 0 0.023  0.0000
@<TRIPOS>BOND
    1     1     2  1
    2     1     5  1
    3     1     6  1
    4     1     7  1
    5     2     3  1
    6     2     8  1
    7     2     9  1
    8     3     4  1
    9     3    10  1
   10     3    11  1
   11     4    12  1
   12     4    13  1
   13     4    14  1

@<TRIPOS>MOLECULE
MOL
   14   13    0    0    0




@<TRIPOS>ATOM
   1   C1        2.6690    1.0520   -1.8840   c3 0 -0.06  0.0000
   2   C2        1.2420    0.8100   -1.4650   c3 0 -0.05  0.0000
   3   C3        1.1660    0.0560   -0.1540   c3 0 -0.05  0.0000
   4   C4       -0.2610   -0.1870    0.2650   c3 0 -0.06  0.0000
   5   H1        2.7061    1.6082   -2.8523   hc 0 0.023  0.0000
   6   H2        3.2099    1.6529   -1.1141   hc 0 0.023  0.0000
   7   H3        3.2052    0.0805   -2.0143   hc 0 0.023  0.0000
   8   H4        0.7070    1.7910   -1.3620   hc 0 0.026  0.0000
   9   H5        0.7090    0.2270   -2.2620   hc 0 0.026  0.0000
  10   H6        1.7010   -0.9250   -0.2580   hc 0 0.026  0.0000
  11   H7        1.6990    0.6390    0.6420   hc 0 0.026  0.0000
  12   H8       -0.2920   -0.7430    1.2320   hc 0 0.023  0.0000
  13   H9       -0.8030    0.7810    0.3960   hc 0 0.023  0.0000
  14  H10       -0.8010   -0.7880   -0.5060   hc 0 0.023  0.0000
@<TRIPOS>BOND
    1     1     2  1
    2     1     5  1
    3     1     6  1
    4     1     7  1
    5     2     3  1
    6     2     8  1
    7     2     9  1
    8     3     4  1
    9     3    10  1
   10     3    11  1
   11     4    12  1
   12     4    13  1
   13     4    14  1

@<TRIPOS>MOLECULE
MOL
   14   13    0    0    0




@<TRIPOS>ATOM
   1   C1        2.6690    1.0520   -1.8840   c3 0 -0.06  0.0000
   2   C2        1.2420    0.8100   -1.4650   c3 0 -0.05  0.0000
   3   C3        1.1660    0.0560   -0.1540   c3 0 -0.05  0.0000
   4   C4       -0.2610   -0.1870    0.2650   c3 0 -0.06  0.0000
   5   H1        2.7061    1.6240   -2.8431   hc 0 0.023  0.0000
   6   H2        3.2150    1.6374   -1.1059   hc 0 0.023  0.0000
   7   H3        3.2001    0.0802   -2.0319   hc 0 0.023  0.0000
   8   H4        0.7070    1.7910   -1.3620   hc 0 0.026  0.0000
   9   H5        0.7090    0.2270   -2.2620   hc 0 0.026  0.0000
  10   H6        1.7010   -0.9250   -0.2580   hc 0 0.026  0.0000
  11   H7        1.6990    0.6390    0.6420   hc 0 0.026  0.0000
  12   H8       -0.2920   -0.7430    1.2320   hc 0 0.023  0.0000
  13   H9       -0.8030    0.7810    0.3960   hc 0 0.023  0.0000
  14  H10       -0.8010   -0.7880   -0.5060   hc 0 0.023  0.0000
@<TRIPOS>BOND
    1     1     2  1
    2     1     5  1
    3     1     6  1
    4     1     7  1
    5     2     3  1
    6     2     8  1
    7     2     9  1
    8     3     4  1
    9     3    10  1
   10     3    11  1
   11     4    12  1
   12     4    13  1
   13     4    14  1

@<TRIPOS>MOLECULE
MOL
   14   13    0    0    0




@<TRIPOS>ATOM
   1   C1        2.6690    1.0520   -1.8840   c3 0 -0.06  0.0000
   2   C2        1.2420    0.8100   -1.4650   c3 0 -0.05  0.0000
   3   C3        1.1660    0.0560   -0.1540   c3 0 -0.05  0.0000
   4   C4       -0.2610   -0.1870    0.2650   c3 0 -0.06  0.0000
   5   H1        2.7062    1.6396   -2.8336   hc 0 0.023  0.0000
   6   H2        3.2200    1.6218   -1.0979   hc 0 0.023  0.0000
   7   H3        3.1949    0.0803   -2.0495   hc 0 0.023  0.0000
   8   H4        0.7070    1.7910   -1.3620   hc 0 0.026  0.0000
   9   H5        0.7090    0.2270   -2.2620   hc 0 0.026  0.0000
  10   H6        1.7010   -0.9250   -0.2580   hc 0 0.026  0.0000
  11   H7        1.6990    0.6390    0.6420   hc 0 0.026  0.0000
  12   H8       -0.2920   -0.7430    1.2320   hc 0 0.023  0.0000
  13   H9       -0.8030    0.7810    0.3960   hc 0 0.023  0.0000
  14  H10       -0.8010   -0.7880   -0.5060   hc 0 0.023  0.0000
@<TRIPOS>BOND
    1     1     2  1
    2     1     5  1
    3     1     6  1
    4     1     7  1
    5     2     3  1
    6     2     8  1
    7     2     9  1
    8     3     4  1
    9     3    10  1
   10     3    11  1
   11     4    12  1
   12     4    13  1
   13     4    14  1

@<TRIPOS>MOLECULE
MOL
   14   13    0    0    0




@<TRIPOS>ATOM
   1   C1        2.6690    1.0520   -1.8840   c3 0 -0.06  0.0000
   2   C2        1.2420    0.8100   -1.4650   c3 0 -0.05  0.0000
   3   C3        1.1660    0.0560   -0.1540   c3 0 -0.05  0.0000
   4   C4       -0.2610   -0.1870    0.2650   c3 0 -0.06  0.0000
   5   H1        2.7065    1.6550   -2.8239   hc 0 0.023  0.0000
   6   H2        3.2249    1.6061   -1.0901   hc 0 0.023  0.0000
   7   H3        3.1897    0.0806   -2.0670   hc 0 0.023  0.0000
   8   H4        0.7070    1.7910   -1.3620   hc 0 0.026  0.0000
   9   H5        0.7090    0.2270   -2.2620   hc 0 0.026  0.0000
  10   H6        1.7010   -0.9250   -0.2580   hc 0 0.026  0.0000
  11   H7        1.6990    0.6390    0.6420   hc 0 0.026  0.0000
  12   H8       -0.2920   -0.7430    1.2320   hc 0 0.023  0.0000
  13   H9       -0.8030    0.7810    0.3960   hc 0 0.023  0.0000
  14  H10       -0.8010   -0.7880   -0.5060   hc 0 0.023  0.0000
@<TRIPOS>BOND
    1     1     2  1
    2     1     5  1
    3     1     6  1
    4     1     7  1
    5     2     3  1
    6     2     8  1
    7     2     9  1
    8     3     4  1
    9     3    10  1
   10     3    11  1
   11     4    12  1
   12     4    13  1
   13     4    14  1

@<TRIPOS>MOLECULE
MOL
   14   13    0    0    0




@<TRIPOS>ATOM
   1   C1        2.6690    1.0520   -1.8840   c3 0 -0.06  0.0000
   2   C2        1.2420    0.8100   -1.4650   c3 0 -0.05  0.0000
   3   C3        1.1660    0.0560   -0.1540   c3 0 -0.05  0.0000
   4   C4       -0.2610   -0.1870    0.2650   c3 0 -0.06  0.0000
   5   H1        2.7068    1.6703   -2.8139   hc 0 0.023  0.0000
   6   H2        3.2298    1.5902   -1.0827   hc 0 0.023  0.0000
   7   H3        3.1844    0.0812   -2.0845   hc 0 0.023  0.0000
   8   H4        0.7070    1.7910   -1.3620   hc 0 0.026  0.0000
   9   H5        0.7090    0.2270   -2.2620   hc 0 0.026  0.0000
  10   H6        1.7010   -0.9250   -0.2580   hc 0 0.026  0.0000
  11   H7        1.6990    0.6390    0.6420   hc 0 0.026  0.0000
  12   H8       -0.2920   -0.7430    1.2320   hc 0 0.023  0.0000
  13   H9       -0.8030    0.7810    0.3960   hc 0 0.023  0.0000
  14  H10       -0.8010   -0.7880   -0.5060   hc 0 0.023  0.0000
@<TRIPOS>BOND
    1     1     2  1
    2     1     5  1
    3     1     6  1
    4     1     7  1
    5     2     3  1
    6     2     8  1
    7     2     9  1
    8     3     4  1
    9     3    10  1
   10     3    11  1
   11     4    12  1
   12     4    13  1
   13     4    14  1

@<TRIPOS>MOLECULE
MOL
   14   13    0    0    0




@<TRIPOS>ATOM
   1   C1        2.6690    1.0520   -1.8840   c3 0 -0.06  0.0000
   2   C2        1.2420    0.8100   -1.4650   c3 0 -0.05  0.0000
   3   C3        1.1660    0.0560   -0.1540   c3 0 -0.05  0.0000
   4   C4       -0.2610   -0.1870    0.2650   c3 0 -0.06  0.0000
   5   H1        2.7073    1.6854   -2.8037   hc 0 0.023  0.0000
   6   H2        3.2346    1.5742   -1.0755   hc 0 0.023  0.0000
   7   H3        3.1792    0.0822   -2.1020   hc 0 0.023  0.0000
   8   H4        0.7070    1.7910   -1.3620   hc 0 0.026  0.0000
   9   H5        0.7090    0.2270   -2.2620   hc 0 0.026  0.0000
  10   H6        1.7010   -0.9250   -0.2580   hc 0 0.026  0.0000
  11   H7        1.6990    0.6390    0.6420   hc 0 0.026  0.0000
  12   H8       -0.2920   -0.7430    1.2320   hc 0 0.023  0.0000
  13   H9       -0.8030    0.7810    0.3960   hc 0 0.023  0.0000
  14  H10       -0.8010   -0.7880   -0.5060   hc 0 0.023  0.0000
@<TRIPOS>BOND
    1     1     2  1
    2     1     5  1
    3     1     6  1
    4     1     7  1
    5     2     3  1
    6     2     8  1
    7     2     9  1
    8     3     4  1
    9     3    10  1
   10     3    11  1
   11     4    12  1
   12     4    13  1
   13     4    14  1

@<TRIPOS>MOLECULE
MOL
   14   13    0    0    0




@<TRIPOS>ATOM
   1   C1        2.6690    1.0520   -1.8840   c3 0 -0.06  0.0000
   2   C2        1.2420    0.8100   -1.4650   c3 0 -0.05  0.0000
   3   C3        1.1660    0.0560   -0.1540   c3 0 -0.05  0.0000
   4   C4       -0.2610   -0.1870    0.2650   c3 0 -0.06  0.0000
   5   H1        2.7078    1.7003   -2.7932   hc 0 0.023  0.0000
   6   H2        3.2394    1.5580   -1.0686   hc 0 0.023  0.0000
   7   H3        3.1738    0.0835   -2.1194   hc 0 0.023  0.0000
   8   H4        0.7070    1.7910   -1.3620   hc 0 0.026  0.0000
   9   H5        0.7090    0.2270   -2.2620   hc 0 0.026  0.0000
  10   H6        1.7010   -0.9250   -0.2580   hc 0 0.026  0.0000
  11   H7        1.6990    0.6390    0.6420   hc 0 0.026  0.0000
  12   H8       -0.2920   -0.7430    1.2320   hc 0 0.023  0.0000
  13   H9       -0.8030    0.7810    0.3960   hc 0 0.023  0.0000
  14  H10       -0.8010   -0.7880   -0.5060   hc 0 0.023  0.0000
@<TRIPOS>BOND
    1     1     2  1
    2     1     5  1
    3     1     6  1
    4     1     7  1
    5     2     3  1
    6     2     8  1
    7     2     9  1
    8     3     4  1
    9     3    10  1
   10     3    11  1
   11     4    12  1
   12     4    13  1
   13     4    14  1

@<TRIPOS>MOLECULE
MOL
   14   13    0    0    0




@<TRIPOS>ATOM
   1   C1        2.6690    1.0520   -1.8840   c3 0 -0.06  0.0000
   2   C2        1.2420    0.8100   -1.4650   c3 0 -0.05  0.0000
   3   C3        1.1660    0.0560   -0.1540   c3 0 -0.05  0.0000
   4   C4       -0.2610   -0.1870    0.2650   c3 0 -0.06  0.0000
   5   H1        2.7085    1.7151   -2.7825   hc 0 0.023  0.0000
   6   H2        3.2441    1.5417   -1.0619   hc 0 0.023  0.0000
   7   H3        3.1684    0.0851   -2.1368   hc 0 0.023  0.0000
   8   H4        0.7070    1.7910   -1.3620   hc 0 0.026  0.0000
   9   H5        0.7090    0.2270   -2.2620   hc 0 0.026  0.0000
  10   H6        1.7010   -0.9250   -0.2580   hc 0 0.026  0.0000
  11   H7        1.6990    0.6390    0.6420   hc 0 0.026  0.0000
  12   H8       -0.2920   -0.7430    1.2320   hc 0 0.023  0.0000
  13   H9       -0.8030    0.7810    0.3960   hc 0 0.023  0.0000
  14  H10       -0.8010   -0.7880   -0.5060   hc 0 0.023  0.0000
@<TRIPOS>BOND
    1     1     2  1
    2     1     5  1
    3     1     6  1
    4     1     7  1
    5     2     3  1
    6     2     8  1
    7     2     9  1
    8     3     4  1
    9     3    10  1
   10     3    11  1
   11     4    12  1
   12     4    13  1
   13     4    14  1

@<TRIPOS>MOLECULE
MOL
   14   13    0    0    0




@<TRIPOS>ATOM
   1   C1        2.6690    1.0520   -1.8840   c3 0 -0.06  0.0000
   2   C2        1.2420    0.8100   -1.4650   c3 0 -0.05  0.0000
   3   C3        1.1660    0.0560   -0.1540   c3 0 -0.05  0.0000
   4   C4       -0.2610   -0.1870    0.2650   c3 0 -0.06  0.0000
   5   H1        2.7092    1.7296   -2.7715   hc 0 0.023  0.0000
   6   H2        3.2488    1.5252   -1.0556   hc 0 0.023  0.0000
   7   H3        3.1630    0.0870   -2.1542   hc 0 0.023  0.0000
   8   H4        0.7070    1.7910   -1.3620   hc 0 0.026  0.0000
   9   H5        0.7090    0.2270   -2.2620   hc 0 0.026  0.0000
  10   H6        1.7010   -0.9250   -0.2580   hc 0 0.026  0.0000
  11   H7        1.6990    0.6390    0.6420   hc 0 0.026  0.0000
  12   H8       -0.2920   -0.7430    1.2320   hc 0 0.023  0.0000
  13   H9       -0.8030    0.7810    0.3960   hc 0 0.023  0.0000
  14  H10       -0.8010   -0.7880   -0.5060   hc 0 0.023  0.0000
@<TRIPOS>BOND
    1     1     2  1
    2     1     5  1
    3     1     6  1
    4     1     7  1
    5     2     3  1
    6     2     8  1
    7     2     9  1
    8     3     4  1
    9     3    10  1
   10     3    11  1
   11     4    12  1
   12     4    13  1
   13     4    14  1

@<TRIPOS>MOLECULE
MOL
   14   13    0    0    0




@<TRIPOS>ATOM
   1   C1        2.6690    1.0520   -1.8840   c3 0 -0.06  0.0000
   2   C2        1.2420    0.8100   -1.4650   c3 0 -0.05  0.0000
   3   C3        1.1660    0.0560   -0.1540   c3 0 -0.05  0.0000
   4   C4       -0.2610   -0.1870    0.2650   c3 0 -0.06  0.0000
   5   H1        2.7101    1.7440   -2.7603   hc 0 0.023  0.0000
   6   H2        3.2533    1.5086   -1.0496   hc 0 0.023  0.0000
   7   H3        3.1576    0.0892   -2.1715   hc 0 0.023  0.0000
   8   H4        0.7070    1.7910   -1.3620   hc 0 0.026  0.0000
   9   H5        0.7090    0.2270   -2.2620   hc 0 0.026  0.0000
  10   H6        1.7010   -0.9250   -0.2580   hc 0 0.026  0.0000
  11   H7        1.6990    0.6390    0.6420   hc 0 0.026  0.0000
  12   H8       -0.2920   -0.7430    1.2320   hc 0 0.023  0.0000
  13   H9       -0.8030    0.7810    0.3960   hc 0 0.023  0.0000
  14  H10       -0.8010   -0.7880   -0.5060   hc 0 0.023  0.0000
@<TRIPOS>BOND
    1     1     2  1
    2     1     5  1
    3     1     6  1
    4     1     7  1
    5     2     3  1
    6     2     8  1
    7     2     9  1
    8     3     4  1
    9     3    10  1
   10     3    11  1
   11     4    12  1
   12     4    13  1
   13     4    14  1

@<TRIPOS>MOLECULE
MOL
   14   13    0    0    0




@<TRIPOS>ATOM
   1   C1        2.6690    1.0520   -1.8840   c3 0 -0.06  0.0000
   2   C2        1.2420    0.8100   -1.4650   c3 0 -0.05  0.0000
   3   C3        1.1660    0.0560   -0.1540   c3 0 -0.05  0.0000
   4   C4       -0.2610   -0.1870    0.2650   c3 0 -0.06  0.0000
   5   H1        2.7110    1.7582   -2.7489   hc 0 0.023  0.0000
   6   H2        3.2579    1.4920   -1.0438   hc 0 0.023  0.0000
   7   H3        3.1521    0.0918   -2.1887   hc 0 0.023  0.0000
   8   H4        0.7070    1.7910   -1.3620   hc 0 0.026  0.0000
   9   H5        0.7090    0.2270   -2.2620   hc 0 0.026  0.0000
  10   H6        1.7010   -0.9250   -0.2580   hc 0 0.026  0.0000
  11   H7        1.6990    0.6390    0.6420   hc 0 0.026  0.0000
  12   H8       -0.2920   -0.7430    1.2320   hc 0 0.023  0.0000
  13   H9       -0.8030    0.7810    0.3960   hc 0 0.023  0.0000
  14  H10       -0.8010   -0.7880   -0.5060   hc 0 0.023  0.0000
@<TRIPOS>BOND
    1     1     2  1
    2     1     5  1
    3     1     6  1
    4     1     7  1
    5     2     3  1
    6     2     8  1
    7     2     9  1
    8     3     4  1
    9     3    10  1
   10     3    11  1
   11     4    12  1
   12     4    13  1
   13     4    14  1

@<TRIPOS>MOLECULE
MOL
   14   13    0    0    0




@<TRIPOS>ATOM
   1   C1        2.6690    1.0520   -1.8840   c3 0 -0.06  0.0000
   2   C2        1.2420    0.8100   -1.4650   c3 0 -0.05  0.0000
   3   C3        1.1660    0.0560   -0.1540   c3 0 -0.05  0.0000
   4   C4       -0.2610   -0.1870    0.2650   c3 0 -0.06  0.0000
   5   H1        2.7121    1.7722   -2.7372   hc 0 0.023  0.0000
   6   H2        3.2623    1.4752   -1.0383   hc 0 0.023  0.0000
   7   H3        3.1465    0.0946   -2.2059   hc 0 0.023  0.0000
   8   H4        0.7070    1.7910   -1.3620   hc 0 0.026  0.0000
   9   H5        0.7090    0.2270   -2.2620   hc 0 0.026  0.0000
  10   H6        1.7010   -0.9250   -0.2580   hc 0 0.026  0.0000
  11   H7        1.6990    0.6390    0.6420   hc 0 0.026  0.0000
  12   H8       -0.2920   -0.7430    1.2320   hc 0 0.023  0.0000
  13   H9       -0.8030    0.7810    0.3960   hc 0 0.023  0.0000
  14  H10       -0.8010   -0.7880   -0.5060   hc 0 0.023  0.0000
@<TRIPOS>BOND
    1     1     2  1
    2     1     5  1
    3     1     6  1
    4     1     7  1
    5     2     3  1
    6     2     8  1
    7     2     9  1
    8     3     4  1
    9     3    10  1
   10     3    11  1
   11     4    12  1
   12     4    13  1
   13     4    14  1

@<TRIPOS>MOLECULE
MOL
   14   13    0    0    0




@<TRIPOS>ATOM
   1   C1        2.6690    1.0520   -1.8840   c3 0 -0.06  0.0000
   2   C2        1.2420    0.8100   -1.4650   c3 0 -0.05  0.0000
   3   C3        1.1660    0.0560   -0.1540   c3 0 -0.05  0.0000
   4   C4       -0.2610   -0.1870    0.2650   c3 0 -0.06  0.0000
   5   H1        2.7132    1.7860   -2.7253   hc 0 0.023  0.0000
   6   H2        3.2667    1.4582   -1.0331   hc 0 0.023  0.0000
   7   H3        3.1410    0.0978   -2.2230   hc 0 0.023  0.0000
   8   H4        0.7070    1.7910   -1.3620   hc 0 0.026  0.0000
   9   H5        0.7090    0.2270   -2.2620   hc 0 0.026  0.0000
  10   H6        1.7010   -0.9250   -0.2580   hc 0 0.026  0.0000
  11   H7        1.6990    0.6390    0.6420   hc 0 0.026  0.0000
  12   H8       -0.2920   -0.7430    1.2320   hc 0 0.023  0.0000
  13   H9       -0.8030    0.7810    0.3960   hc 0 0.023  0.0000
  14  H10       -0.8010   -0.7880   -0.5060   hc 0 0.023  0.0000
@<TRIPOS>BOND
    1     1     2  1
    2     1     5  1
    3     1     6  1
    4     1     7  1
    5     2     3  1
    6     2     8  1
    7     2     9  1
    8     3     4  1
    9     3    10  1
   10     3    11  1
   11     4    12  1
   12     4    13  1
   13     4    14  1

@<TRIPOS>MOLECULE
MOL
   14   13    0    0    0




@<TRIPOS>ATOM
   1   C1        2.6690    1.0520   -1.8840   c3 0 -0.06  0.0000
   2   C2        1.2420    0.8100   -1.4650   c3 0 -0.05  0.0000
   3   C3        1.1660    0.0560   -0.1540   c3 0 -0.05  0.0000
   4   C4       -0.2610   -0.1870    0.2650   c3 0 -0.06  0.0000
   5   H1        2.7145    1.7996   -2.7132   hc 0 0.023  0.0000
   6   H2        3.2710    1.4412   -1.0282   hc 0 0.023  0.0000
   7   H3        3.1354    0.1012   -2.2401   hc 0 0.023  0.0000
   8   H4        0.7070    1.7910   -1.3620   hc 0 0.026  0.0000
   9   H5        0.7090    0.2270   -2.2620   hc 0 0.026  0.0000
  10   H6        1.7010   -0.9250   -0.2580   hc 0 0.026  0.0000
  11   H7        1.6990    0.6390    0.6420   hc 0 0.026  0.0000
  12   H8       -0.2920   -0.7430    1.2320   hc 0 0.023  0.0000
  13   H9       -0.8030    0.7810    0.3960   hc 0 0.023  0.0000
  14  H10       -0.8010   -0.7880   -0.5060   hc 0 0.023  0.0000
@<TRIPOS>BOND
    1     1     2  1
    2     1     5  1
    3     1     6  1
    4     1     7  1
    5     2     3  1
    6     2     8  1
    7     2     9  1
    8     3     4  1
    9     3    10  1
   10     3    11  1
   11     4    12  1
   12     4    13  1
   13     4    14  1

@<TRIPOS>MOLECULE
MOL
   14   13    0    0    0




@<TRIPOS>ATOM
   1   C1        2.6690    1.0520   -1.8840   c3 0 -0.06  0.0000
   2   C2        1.2420    0.8100   -1.4650   c3 0 -0.05  0.0000
   3   C3        1.1660    0.0560   -0.1540   c3 0 -0.05  0.0000
   4   C4       -0.2610   -0.1870    0.2650   c3 0 -0.06  0.0000
   5   H1        2.7158    1.8129   -2.7008   hc 0 0.023  0.0000
   6   H2        3.2753    1.4241   -1.0236   hc 0 0.023  0.0000
   7   H3        3.1297    0.1050   -2.2571   hc 0 0.023  0.0000
   8   H4        0.7070    1.7910   -1.3620   hc 0 0.026  0.0000
   9   H5        0.7090    0.2270   -2.2620   hc 0 0.026  0.0000
  10   H6        1.7010   -0.9250   -0.2580   hc 0 0.026  0.0000
  11   H7        1.6990    0.6390    0.6420   hc 0 0.026  0.0000
  12   H8       -0.2920   -0.7430    1.2320   hc 0 0.023  0.0000
  13   H9       -0.8030    0.7810    0.3960   hc 0 0.023  0.0000
  14  H10       -0.8010   -0.7880   -0.5060   hc 0 0.023  0.0000
@<TRIPOS>BOND
    1     1     2  1
    2     1     5  1
    3     1     6  1
    4     1     7  1
    5     2     3  1
    6     2     8  1
    7     2     9  1
    8     3     4  1
    9     3    10  1
   10     3    11  1
   11     4    12  1
   12     4    13  1
   13     4    14  1

@<TRIPOS>MOLECULE
MOL
   14   13    0    0    0




@<TRIPOS>ATOM
   1   C1        2.6690    1.0520   -1.8840   c3 0 -0.06  0.0000
   2   C2        1.2420    0.8100   -1.4650   c3 0 -0.05  0.0000
   3   C3        1.1660    0.0560   -0.1540   c3 0 -0.05  0.0000
   4   C4       -0.2610   -0.1870    0.2650   c3 0 -0.06  0.0000
   5   H1        2.7173    1.8261   -2.6883   hc 0 0.023  0.0000
   6   H2        3.2795    1.4069   -1.0193   hc 0 0.023  0.0000
   7   H3        3.1241    0.1091   -2.2740   hc 0 0.023  0.0000
   8   H4        0.7070    1.7910   -1.3620   hc 0 0.026  0.0000
   9   H5        0.7090    0.2270   -2.2620   hc 0 0.026  0.0000
  10   H6        1.7010   -0.9250   -0.2580   hc 0 0.026  0.0000
  11   H7        1.6990    0.6390    0.6420   hc 0 0.026  0.0000
  12   H8       -0.2920   -0.7430    1.2320   hc 0 0.023  0.0000
  13   H9       -0.8030    0.7810    0.3960   hc 0 0.023  0.0000
  14  H10       -0.8010   -0.7880   -0.5060   hc 0 0.023  0.0000
@<TRIPOS>BOND
    1     1     2  1
    2     1     5  1
    3     1     6  1
    4     1     7  1
    5     2     3  1
    6     2     8  1
    7     2     9  1
    8     3     4  1
    9     3    10  1
   10     3    11  1
   11     4    12  1
   12     4    13  1
   13     4    14  1

@<TRIPOS>MOLECULE
MOL
   14   13    0    0    0




@<TRIPOS>ATOM
   1   C1        2.6690    1.0520   -1.8840   c3 0 -0.06  0.0000
   2   C2        1.2420    0.8100   -1.4650   c3 0 -0.05  0.0000
   3   C3        1.1660    0.0560   -0.1540   c3 0 -0.05  0.0000
   4   C4       -0.2610   -0.1870    0.2650   c3 0 -0.06  0.0000
   5   H1        2.7188    1.8391   -2.6755   hc 0 0.023  0.0000
   6   H2        3.2836    1.3896   -1.0153   hc 0 0.023  0.0000
   7   H3        3.1184    0.1135   -2.2908   hc 0 0.023  0.0000
   8   H4        0.7070    1.7910   -1.3620   hc 0 0.026  0.0000
   9   H5        0.7090    0.2270   -2.2620   hc 0 0.026  0.0000
  10   H6        1.7010   -0.9250   -0.2580   hc 0 0.026  0.0000
  11   H7        1.6990    0.6390    0.6420   hc 0 0.026  0.0000
  12   H8       -0.2920   -0.7430    1.2320   hc 0 0.023  0.0000
  13   H9       -0.8030    0.7810    0.3960   hc 0 0.023  0.0000
  14  H10       -0.8010   -0.7880   -0.5060   hc 0 0.023  0.0000
@<TRIPOS>BOND
    1     1     2  1
    2     1     5  1
    3     1     6  1
    4     1     7  1
    5     2     3  1
    6     2     8  1
    7     2     9  1
    8     3     4  1
    9     3    10  1
   10     3    11  1
   11     4    12  1
   12     4    13  1
   13     4    14  1

@<TRIPOS>MOLECULE
MOL
   14   13    0    0    0




@<TRIPOS>ATOM
   1   C1        2.6690    1.0520   -1.8840   c3 0 -0.06  0.0000
   2   C2        1.2420    0.8100   -1.4650   c3 0 -0.05  0.0000
   3   C3        1.1660    0.0560   -0.1540   c3 0 -0.05  0.0000
   4   C4       -0.2610   -0.1870    0.2650   c3 0 -0.06  0.0000
   5   H1        2.7205    1.8518   -2.6625   hc 0 0.023  0.0000
   6   H2        3.2876    1.3722   -1.0116   hc 0 0.023  0.0000
   7   H3        3.1127    0.1182   -2.3075   hc 0 0.023  0.0000
   8   H4        0.7070    1.7910   -1.3620   hc 0 0.026  0.0000
   9   H5        0.7090    0.2270   -2.2620   hc 0 0.026  0.0000
  10   H6        1.7010   -0.9250   -0.2580   hc 0 0.026  0.0000
  11   H7        1.6990    0.6390    0.6420   hc 0 0.026  0.0000
  12   H8       -0.2920   -0.7430    1.2320   hc 0 0.023  0.0000
  13   H9       -0.8030    0.7810    0.3960   hc 0 0.023  0.0000
  14  H10       -0.8010   -0.7880   -0.5060   hc 0 0.023  0.0000
@<TRIPOS>BOND
    1     1     2  1
    2     1     5  1
    3     1     6  1
    4     1     7  1
    5     2     3  1
    6     2     8  1
    7     2     9  1
    8     3     4  1
    9     3    10  1
   10     3    11  1
   11     4    12  1
   12     4    13  1
   13     4    14  1

@<TRIPOS>MOLECULE
MOL
   14   13    0    0    0




@<TRIPOS>ATOM
   1   C1        2.6690    1.0520   -1.8840   c3 0 -0.06  0.0000
   2   C2        1.2420    0.8100   -1.4650   c3 0 -0.05  0.0000
   3   C3        1.1660    0.0560   -0.1540   c3 0 -0.05  0.0000
   4   C4       -0.2610   -0.1870    0.2650   c3 0 -0.06  0.0000
   5   H1        2.7222    1.8643   -2.6494   hc 0 0.023  0.0000
   6   H2        3.2916    1.3548   -1.0082   hc 0 0.023  0.0000
   7   H3        3.1070    0.1232   -2.3242   hc 0 0.023  0.0000
   8   H4        0.7070    1.7910   -1.3620   hc 0 0.026  0.0000
   9   H5        0.7090    0.2270   -2.2620   hc 0 0.026  0.0000
  10   H6        1.7010   -0.9250   -0.2580   hc 0 0.026  0.0000
  11   H7        1.6990    0.6390    0.6420   hc 0 0.026  0.0000
  12   H8       -0.2920   -0.7430    1.2320   hc 0 0.023  0.0000
  13   H9       -0.8030    0.7810    0.3960   hc 0 0.023  0.0000
  14  H10       -0.8010   -0.7880   -0.5060   hc 0 0.023  0.0000
@<TRIPOS>BOND
    1     1     2  1
    2     1     5  1
    3     1     6  1
    4     1     7  1
    5     2     3  1
    6     2     8  1
    7     2     9  1
    8     3     4  1
    9     3    10  1
   10     3    11  1
   11     4    12  1
   12     4    13  1
   13     4    14  1

@<TRIPOS>MOLECULE
MOL
   14   13    0    0    0




@<TRIPOS>ATOM
   1   C1        2.6690    1.0520   -1.8840   c3 0 -0.06  0.0000
   2   C2        1.2420    0.8100   -1.4650   c3 0 -0.05  0.0000
   3   C3        1.1660    0.0560   -0.1540   c3 0 -0.05  0.0000
   4   C4       -0.2610   -0.1870    0.2650   c3 0 -0.06  0.0000
   5   H1        2.7241    1.8766   -2.6360   hc 0 0.023  0.0000
   6   H2        3.2955    1.3372   -1.0051   hc 0 0.023  0.0000
   7   H3        3.1012    0.1285   -2.3407   hc 0 0.023  0.0000
   8   H4        0.7070    1.7910   -1.3620   hc 0 0.026  0.0000
   9   H5        0.7090    0.2270   -2.2620   hc 0 0.026  0.0000
  10   H6        1.7010   -0.9250   -0.2580   hc 0 0.026  0.0000
  11   H7        1.6990    0.6390    0.6420   hc 0 0.026  0.0000
  12   H8       -0.2920   -0.7430    1.2320   hc 0 0.023  0.0000
  13   H9       -0.8030    0.7810    0.3960   hc 0 0.023  0.0000
  14  H10       -0.8010   -0.7880   -0.5060   hc 0 0.023  0.0000
@<TRIPOS>BOND
    1     1     2  1
    2     1     5  1
    3     1     6  1
    4     1     7  1
    5     2     3  1
    6     2     8  1
    7     2     9  1
    8     3     4  1
    9     3    10  1
   10     3    11  1
   11     4    12  1
   12     4    13  1
   13     4    14  1

@<TRIPOS>MOLECULE
MOL
   14   13    0    0    0




@<TRIPOS>ATOM
   1   C1        2.6690    1.0520   -1.8840   c3 0 -0.06  0.0000
   2   C2        1.2420    0.8100   -1.4650   c3 0 -0.05  0.0000
   3   C3        1.1660    0.0560   -0.1540   c3 0 -0.05  0.0000
   4   C4       -0.2610   -0.1870    0.2650   c3 0 -0.06  0.0000
   5   H1        2.7260    1.8886   -2.6224   hc 0 0.023  0.0000
   6   H2        3.2993    1.3196   -1.0023   hc 0 0.023  0.0000
   7   H3        3.0954    0.1341   -2.3571   hc 0 0.023  0.0000
   8   H4        0.7070    1.7910   -1.3620   hc 0 0.026  0.0000
   9   H5        0.7090    0.2270   -2.2620   hc 0 0.026  0.0000
  10   H6        1.7010   -0.9250   -0.2580   hc 0 0.026  0.0000
  11   H7        1.6990    0.6390    0.6420   hc 0 0.026  0.0000
  12   H8       -0.2920   -0.7430    1.2320   hc 0 0.023  0.0000
  13   H9       -0.8030    0.7810    0.3960   hc 0 0.023  0.0000
  14  H10       -0.8010   -0.7880   -0.5060   hc 0 0.023  0.0000
@<TRIPOS>BOND
    1     1     2  1
    2     1     5  1
    3     1     6  1
    4     1     7  1
    5     2     3  1
    6     2     8  1
    7     2     9  1
    8     3     4  1
    9     3    10  1
   10     3    11  1
   11     4    12  1
   12     4    13  1
   13     4    14  1

@<TRIPOS>MOLECULE
MOL
   14   13    0    0    0




@<TRIPOS>ATOM
   1   C1        2.6690    1.0520   -1.8840   c3 0 -0.06  0.0000
   2   C2        1.2420    0.8100   -1.4650   c3 0 -0.05  0.0000
   3   C3        1.1660    0.0560   -0.1540   c3 0 -0.05  0.0000
   4   C4       -0.2610   -0.1870    0.2650   c3 0 -0.06  0.0000
   5   H1        2.7280    1.9004   -2.6087   hc 0 0.023  0.0000
   6   H2        3.3030    1.3020   -0.9998   hc 0 0.023  0.0000
   7   H3        3.0896    0.1400   -2.3734   hc 0 0.023  0.0000
   8   H4        0.7070    1.7910   -1.3620   hc 0 0.026  0.0000
   9   H5        0.7090    0.2270   -2.2620   hc 0 0.026  0.0000
  10   H6        1.7010   -0.9250   -0.2580   hc 0 0.026  0.0000
  11   H7        1.6990    0.6390    0.6420   hc 0 0.026  0.0000
  12   H8       -0.2920   -0.7430    1.2320   hc 0 0.023  0.0000
  13   H9       -0.8030    0.7810    0.3960   hc 0 0.023  0.0000
  14  H10       -0.8010   -0.7880   -0.5060   hc 0 0.023  0.0000
@<TRIPOS>BOND
    1     1     2  1
    2     1     5  1
    3     1     6  1
    4     1     7  1
    5     2     3  1
    6     2     8  1
    7     2     9  1
    8     3     4  1
    9     3    10  1
   10     3    11  1
   11     4    12  1
   12     4    13  1
   13     4    14  1

@<TRIPOS>MOLECULE
MOL
   14   13    0    0    0




@<TRIPOS>ATOM
   1   C1        2.6690    1.0520   -1.8840   c3 0 -0.06  0.0000
   2   C2        1.2420    0.8100   -1.4650   c3 0 -0.05  0.0000
   3   C3        1.1660    0.0560   -0.1540   c3 0 -0.05  0.0000
   4   C4       -0.2610   -0.1870    0.2650   c3 0 -0.06  0.0000
   5   H1        2.7302    1.9120   -2.5947   hc 0 0.023  0.0000
   6   H2        3.3067    1.2843   -0.9976   hc 0 0.023  0.0000
   7   H3        3.0838    0.1462   -2.3896   hc 0 0.023  0.0000
   8   H4        0.7070    1.7910   -1.3620   hc 0 0.026  0.0000
   9   H5        0.7090    0.2270   -2.2620   hc 0 0.026  0.0000
  10   H6        1.7010   -0.9250   -0.2580   hc 0 0.026  0.0000
  11   H7        1.6990    0.6390    0.6420   hc 0 0.026  0.0000
  12   H8       -0.2920   -0.7430    1.2320   hc 0 0.023  0.0000
  13   H9       -0.8030    0.7810    0.3960   hc 0 0.023  0.0000
  14  H10       -0.8010   -0.7880   -0.5060   hc 0 0.023  0.0000
@<TRIPOS>BOND
    1     1     2  1
    2     1     5  1
    3     1     6  1
    4     1     7  1
    5     2     3  1
    6     2     8  1
    7     2     9  1
    8     3     4  1
    9     3    10  1
   10     3    11  1
   11     4    12  1
   12     4    13  1
   13     4    14  1

@<TRIPOS>MOLECULE
MOL
   14   13    0    0    0




@<TRIPOS>ATOM
   1   C1        2.6690    1.0520   -1.8840   c3 0 -0.06  0.0000
   2   C2        1.2420    0.8100   -1.4650   c3 0 -0.05  0.0000
   3   C3        1.1660    0.0560   -0.1540   c3 0 -0.05  0.0000
   4   C4       -0.2610   -0.1870    0.2650   c3 0 -0.06  0.0000
   5   H1        2.7324    1.9233   -2.5806   hc 0 0.023  0.0000
   6   H2        3.3102    1.2665   -0.9957   hc 0 0.023  0.0000
   7   H3        3.0780    0.1527   -2.4057   hc 0 0.023  0.0000
   8   H4        0.7070    1.7910   -1.3620   hc 0 0.026  0.0000
   9   H5        0.7090    0.2270   -2.2620   hc 0 0.026  0.0000
  10   H6        1.7010   -0.9250   -0.2580   hc 0 0.026  0.0000
  11   H7        1.6990    0.6390    0.6420   hc 0 0.026  0.0000
  12   H8       -0.2920   -0.7430    1.2320   hc 0 0.023  0.0000
  13   H9       -0.8030    0.7810    0.3960   hc 0 0.023  0.0000
  14  H10       -0.8010   -0.7880   -0.5060   hc 0 0.023  0.0000
@<TRIPOS>BOND
    1     1     2  1
    2     1     5  1
    3     1     6  1
    4     1     7  1
    5     2     3  1
    6     2     8  1
    7     2     9  1
    8     3     4  1
    9     3    10  1
   10     3    11  1
   11     4    12  1
   12     4    13  1
   13     4    14  1

@<TRIPOS>MOLECULE
MOL
   14   13    0    0    0




@<TRIPOS>ATOM
   1   C1        2.6690    1.0520   -1.8840   c3 0 -0.06  0.0000
   2   C2        1.2420    0.8100   -1.4650   c3 0 -0.05  0.0000
   3   C3        1.1660    0.0560   -0.1540   c3 0 -0.05  0.0000
   4   C4       -0.2610   -0.1870    0.2650   c3 0 -0.06  0.0000
   5   H1        2.7347    1.9344   -2.5663   hc 0 0.023  0.0000
   6   H2        3.3137    1.2487   -0.9941   hc 0 0.023  0.0000
   7   H3        3.0722    0.1595   -2.4216   hc 0 0.023  0.0000
   8   H4        0.7070    1.7910   -1.3620   hc 0 0.026  0.0000
   9   H5        0.7090    0.2270   -2.2620   hc 0 0.026  0.0000
  10   H6        1.7010   -0.9250   -0.2580   hc 0 0.026  0.0000
  11   H7        1.6990    0.6390    0.6420   hc 0 0.026  0.0000
  12   H8       -0.2920   -0.7430    1.2320   hc 0 0.023  0.0000
  13   H9       -0.8030    0.7810    0.3960   hc 0 0.023  0.0000
  14  H10       -0.8010   -0.7880   -0.5060   hc 0 0.023  0.0000
@<TRIPOS>BOND
    1     1     2  1
    2     1     5  1
    3     1     6  1
    4     1     7  1
    5     2     3  1
    6     2     8  1
    7     2     9  1
    8     3     4  1
    9     3    10  1
   10     3    11  1
   11     4    12  1
   12     4    13  1
   13     4    14  1

@<TRIPOS>MOLECULE
MOL
   14   13    0    0    0




@<TRIPOS>ATOM
   1   C1        2.6690    1.0520   -1.8840   c3 0 -0.06  0.0000
   2   C2        1.2420    0.8100   -1.4650   c3 0 -0.05  0.0000
   3   C3        1.1660    0.0560   -0.1540   c3 0 -0.05  0.0000
   4   C4       -0.2610   -0.1870    0.2650   c3 0 -0.06  0.0000
   5   H1        2.7372    1.9452   -2.5518   hc 0 0.023  0.0000
   6   H2        3.3171    1.2308   -0.9928   hc 0 0.023  0.0000
   7   H3        3.0663    0.1665   -2.4375   hc 0 0.023  0.0000
   8   H4        0.7070    1.7910   -1.3620   hc 0 0.026  0.0000
   9   H5        0.7090    0.2270   -2.2620   hc 0 0.026  0.0000
  10   H6        1.7010   -0.9250   -0.2580   hc 0 0.026  0.0000
  11   H7        1.6990    0.6390    0.6420   hc 0 0.026  0.0000
  12   H8       -0.2920   -0.7430    1.2320   hc 0 0.023  0.0000
  13   H9       -0.8030    0.7810    0.3960   hc 0 0.023  0.0000
  14  H10       -0.8010   -0.7880   -0.5060   hc 0 0.023  0.0000
@<TRIPOS>BOND
    1     1     2  1
    2     1     5  1
    3     1     6  1
    4     1     7  1
    5     2     3  1
    6     2     8  1
    7     2     9  1
    8     3     4  1
    9     3    10  1
   10     3    11  1
   11     4    12  1
   12     4    13  1
   13     4    14  1

@<TRIPOS>MOLECULE
MOL
   14   13    0    0    0




@<TRIPOS>ATOM
   1   C1        2.6690    1.0520   -1.8840   c3 0 -0.06  0.0000
   2   C2        1.2420    0.8100   -1.4650   c3 0 -0.05  0.0000
   3   C3        1.1660    0.0560   -0.1540   c3 0 -0.05  0.0000
   4   C4       -0.2610   -0.1870    0.2650   c3 0 -0.06  0.0000
   5   H1        2.7397    1.9558   -2.5371   hc 0 0.023  0.0000
   6   H2        3.3204    1.2129   -0.9918   hc 0 0.023  0.0000
   7   H3        3.0605    0.1739   -2.4531   hc 0 0.023  0.0000
   8   H4        0.7070    1.7910   -1.3620   hc 0 0.026  0.0000
   9   H5        0.7090    0.2270   -2.2620   hc 0 0.026  0.0000
  10   H6        1.7010   -0.9250   -0.2580   hc 0 0.026  0.0000
  11   H7        1.6990    0.6390    0.6420   hc 0 0.026  0.0000
  12   H8       -0.2920   -0.7430    1.2320   hc 0 0.023  0.0000
  13   H9       -0.8030    0.7810    0.3960   hc 0 0.023  0.0000
  14  H10       -0.8010   -0.7880   -0.5060   hc 0 0.023  0.0000
@<TRIPOS>BOND
    1     1     2  1
    2     1     5  1
    3     1     6  1
    4     1     7  1
    5     2     3  1
    6     2     8  1
    7     2     9  1
    8     3     4  1
    9     3    10  1
   10     3    11  1
   11     4    12  1
   12     4    13  1
   13     4    14  1

@<TRIPOS>MOLECULE
MOL
   14   13    0    0    0




@<TRIPOS>ATOM
   1   C1        2.6690    1.0520   -1.8840   c3 0 -0.06  0.0000
   2   C2        1.2420    0.8100   -1.4650   c3 0 -0.05  0.0000
   3   C3        1.1660    0.0560   -0.1540   c3 0 -0.05  0.0000
   4   C4       -0.2610   -0.1870    0.2650   c3 0 -0.06  0.0000
   5   H1        2.7423    1.9662   -2.5223   hc 0 0.023  0.0000
   6   H2        3.3237    1.1950   -0.9911   hc 0 0.023  0.0000
   7   H3        3.0546    0.1816   -2.4687   hc 0 0.023  0.0000
   8   H4        0.7070    1.7910   -1.3620   hc 0 0.026  0.0000
   9   H5        0.7090    0.2270   -2.2620   hc 0 0.026  0.0000
  10   H6        1.7010   -0.9250   -0.2580   hc 0 0.026  0.0000
  11   H7        1.6990    0.6390    0.6420   hc 0 0.026  0.0000
  12   H8       -0.2920   -0.7430    1.2320   hc 0 0.023  0.0000
  13   H9       -0.8030    0.7810    0.3960   hc 0 0.023  0.0000
  14  H10       -0.8010   -0.7880   -0.5060   hc 0 0.023  0.0000
@<TRIPOS>BOND
    1     1     2  1
    2     1     5  1
    3     1     6  1
    4     1     7  1
    5     2     3  1
    6     2     8  1
    7     2     9  1
    8     3     4  1
    9     3    10  1
   10     3    11  1
   11     4    12  1
   12     4    13  1
   13     4    14  1

@<TRIPOS>MOLECULE
MOL
   14   13    0    0    0




@<TRIPOS>ATOM
   1   C1        2.6690    1.0520   -1.8840   c3 0 -0.06  0.0000
   2   C2        1.2420    0.8100   -1.4650   c3 0 -0.05  0.0000
   3   C3        1.1660    0.0560   -0.1540   c3 0 -0.05  0.0000
   4   C4       -0.2610   -0.1870    0.2650   c3 0 -0.06  0.0000
   5   H1        2.7450    1.9762   -2.5073   hc 0 0.023  0.0000
   6   H2        3.3268    1.1770   -0.9908   hc 0 0.023  0.0000
   7   H3        3.0488    0.1895   -2.4841   hc 0 0.023  0.0000
   8   H4        0.7070    1.7910   -1.3620   hc 0 0.026  0.0000
   9   H5        0.7090    0.2270   -2.2620   hc 0 0.026  0.0000
  10   H6        1.7010   -0.9250   -0.2580   hc 0 0.026  0.0000
  11   H7        1.6990    0.6390    0.6420   hc 0 0.026  0.0000
  12   H8       -0.2920   -0.7430    1.2320   hc 0 0.023  0.0000
  13   H9       -0.8030    0.7810    0.3960   hc 0 0.023  0.0000
  14  H10       -0.8010   -0.7880   -0.5060   hc 0 0.023  0.0000
@<TRIPOS>BOND
    1     1     2  1
    2     1     5  1
    3     1     6  1
    4     1     7  1
    5     2     3  1
    6     2     8  1
    7     2     9  1
    8     3     4  1
    9     3    10  1
   10     3    11  1
   11     4    12  1
   12     4    13  1
   13     4    14  1

@<TRIPOS>MOLECULE
MOL
   14   13    0    0    0




@<TRIPOS>ATOM
   1   C1        2.6690    1.0520   -1.8840   c3 0 -0.06  0.0000
   2   C2        1.2420    0.8100   -1.4650   c3 0 -0.05  0.0000
   3   C3        1.1660    0.0560   -0.1540   c3 0 -0.05  0.0000
   4   C4       -0.2610   -0.1870    0.2650   c3 0 -0.06  0.0000
   5   H1        2.7477    1.9860   -2.4922   hc 0 0.023  0.0000
   6   H2        3.3299    1.1591   -0.9907   hc 0 0.023  0.0000
   7   H3        3.0429    0.1977   -2.4993   hc 0 0.023  0.0000
   8   H4        0.7070    1.7910   -1.3620   hc 0 0.026  0.0000
   9   H5        0.7090    0.2270   -2.2620   hc 0 0.026  0.0000
  10   H6        1.7010   -0.9250   -0.2580   hc 0 0.026  0.0000
  11   H7        1.6990    0.6390    0.6420   hc 0 0.026  0.0000
  12   H8       -0.2920   -0.7430    1.2320   hc 0 0.023  0.0000
  13   H9       -0.8030    0.7810    0.3960   hc 0 0.023  0.0000
  14  H10       -0.8010   -0.7880   -0.5060   hc 0 0.023  0.0000
@<TRIPOS>BOND
    1     1     2  1
    2     1     5  1
    3     1     6  1
    4     1     7  1
    5     2     3  1
    6     2     8  1
    7     2     9  1
    8     3     4  1
    9     3    10  1
   10     3    11  1
   11     4    12  1
   12     4    13  1
   13     4    14  1

@<TRIPOS>MOLECULE
MOL
   14   13    0    0    0




@<TRIPOS>ATOM
   1   C1        2.6690    1.0520   -1.8840   c3 0 -0.06  0.0000
   2   C2        1.2420    0.8100   -1.4650   c3 0 -0.05  0.0000
   3   C3        1.1660    0.0560   -0.1540   c3 0 -0.05  0.0000
   4   C4       -0.2610   -0.1870    0.2650   c3 0 -0.06  0.0000
   5   H1        2.7506    1.9956   -2.4769   hc 0 0.023  0.0000
   6   H2        3.3329    1.1411   -0.9909   hc 0 0.023  0.0000
   7   H3        3.0370    0.2062   -2.5144   hc 0 0.023  0.0000
   8   H4        0.7070    1.7910   -1.3620   hc 0 0.026  0.0000
   9   H5        0.7090    0.2270   -2.2620   hc 0 0.026  0.0000
  10   H6        1.7010   -0.9250   -0.2580   hc 0 0.026  0.0000
  11   H7        1.6990    0.6390    0.6420   hc 0 0.026  0.0000
  12   H8       -0.2920   -0.7430    1.2320   hc 0 0.023  0.0000
  13   H9       -0.8030    0.7810    0.3960   hc 0 0.023  0.0000
  14  H10       -0.8010   -0.7880   -0.5060   hc 0 0.023  0.0000
@<TRIPOS>BOND
    1     1     2  1
    2     1     5  1
    3     1     6  1
    4     1     7  1
    5     2     3  1
    6     2     8  1
    7     2     9  1
    8     3     4  1
    9     3    10  1
   10     3    11  1
   11     4    12  1
   12     4    13  1
   13     4    14  1

@<TRIPOS>MOLECULE
MOL
   14   13    0    0    0




@<TRIPOS>ATOM
   1   C1        2.6690    1.0520   -1.8840   c3 0 -0.06  0.0000
   2   C2        1.2420    0.8100   -1.4650   c3 0 -0.05  0.0000
   3   C3        1.1660    0.0560   -0.1540   c3 0 -0.05  0.0000
   4   C4       -0.2610   -0.1870    0.2650   c3 0 -0.06  0.0000
   5   H1        2.7536    2.0048   -2.4614   hc 0 0.023  0.0000
   6   H2        3.3358    1.1231   -0.9915   hc 0 0.023  0.0000
   7   H3        3.0311    0.2150   -2.5293   hc 0 0.023  0.0000
   8   H4        0.7070    1.7910   -1.3620   hc 0 0.026  0.0000
   9   H5        0.7090    0.2270   -2.2620   hc 0 0.026  0.0000
  10   H6        1.7010   -0.9250   -0.2580   hc 0 0.026  0.0000
  11   H7        1.6990    0.6390    0.6420   hc 0 0.026  0.0000
  12   H8       -0.2920   -0.7430    1.2320   hc 0 0.023  0.0000
  13   H9       -0.8030    0.7810    0.3960   hc 0 0.023  0.0000
  14  H10       -0.8010   -0.7880   -0.5060   hc 0 0.023  0.0000
@<TRIPOS>BOND
    1     1     2  1
    2     1     5  1
    3     1     6  1
    4     1     7  1
    5     2     3  1
    6     2     8  1
    7     2     9  1
    8     3     4  1
    9     3    10  1
   10     3    11  1
   11     4    12  1
   12     4    13  1
   13     4    14  1

@<TRIPOS>MOLECULE
MOL
   14   13    0    0    0




@<TRIPOS>ATOM
   1   C1        2.6690    1.0520   -1.8840   c3 0 -0.06  0.0000
   2   C2        1.2420    0.8100   -1.4650   c3 0 -0.05  0.0000
   3   C3        1.1660    0.0560   -0.1540   c3 0 -0.05  0.0000
   4   C4       -0.2610   -0.1870    0.2650   c3 0 -0.06  0.0000
   5   H1        2.7566    2.0138   -2.4458   hc 0 0.023  0.0000
   6   H2        3.3386    1.1051   -0.9923   hc 0 0.023  0.0000
   7   H3        3.0253    0.2240   -2.5441   hc 0 0.023  0.0000
   8   H4        0.7070    1.7910   -1.3620   hc 0 0.026  0.0000
   9   H5        0.7090    0.2270   -2.2620   hc 0 0.026  0.0000
  10   H6        1.7010   -0.9250   -0.2580   hc 0 0.026  0.0000
  11   H7        1.6990    0.6390    0.6420   hc 0 0.026  0.0000
  12   H8       -0.2920   -0.7430    1.2320   hc 0 0.023  0.0000
  13   H9       -0.8030    0.7810    0.3960   hc 0 0.023  0.0000
  14  H10       -0.8010   -0.7880   -0.5060   hc 0 0.023  0.0000
@<TRIPOS>BOND
    1     1     2  1
    2     1     5  1
    3     1     6  1
    4     1     7  1
    5     2     3  1
    6     2     8  1
    7     2     9  1
    8     3     4  1
    9     3    10  1
   10     3    11  1
   11     4    12  1
   12     4    13  1
   13     4    14  1

@<TRIPOS>MOLECULE
MOL
   14   13    0    0    0




@<TRIPOS>ATOM
   1   C1        2.6690    1.0520   -1.8840   c3 0 -0.06  0.0000
   2   C2        1.2420    0.8100   -1.4650   c3 0 -0.05  0.0000
   3   C3        1.1660    0.0560   -0.1540   c3 0 -0.05  0.0000
   4   C4       -0.2610   -0.1870    0.2650   c3 0 -0.06  0.0000
   5   H1        2.7598    2.0225   -2.4301   hc 0 0.023  0.0000
   6   H2        3.3413    1.0871   -0.9935   hc 0 0.023  0.0000
   7   H3        3.0194    0.2333   -2.5587   hc 0 0.023  0.0000
   8   H4        0.7070    1.7910   -1.3620   hc 0 0.026  0.0000
   9   H5        0.7090    0.2270   -2.2620   hc 0 0.026  0.0000
  10   H6        1.7010   -0.9250   -0.2580   hc 0 0.026  0.0000
  11   H7        1.6990    0.6390    0.6420   hc 0 0.026  0.0000
  12   H8       -0.2920   -0.7430    1.2320   hc 0 0.023  0.0000
  13   H9       -0.8030    0.7810    0.3960   hc 0 0.023  0.0000
  14  H10       -0.8010   -0.7880   -0.5060   hc 0 0.023  0.0000
@<TRIPOS>BOND
    1     1     2  1
    2     1     5  1
    3     1     6  1
    4     1     7  1
    5     2     3  1
    6     2     8  1
    7     2     9  1
    8     3     4  1
    9     3    10  1
   10     3    11  1
   11     4    12  1
   12     4    13  1
   13     4    14  1

@<TRIPOS>MOLECULE
MOL
   14   13    0    0    0




@<TRIPOS>ATOM
   1   C1        2.6690    1.0520   -1.8840   c3 0 -0.06  0.0000
   2   C2        1.2420    0.8100   -1.4650   c3 0 -0.05  0.0000
   3   C3        1.1660    0.0560   -0.1540   c3 0 -0.05  0.0000
   4   C4       -0.2610   -0.1870    0.2650   c3 0 -0.06  0.0000
   5   H1        2.7630    2.0310   -2.4143   hc 0 0.023  0.0000
   6   H2        3.3439    1.0692   -0.9949   hc 0 0.023  0.0000
   7   H3        3.0136    0.2429   -2.5731   hc 0 0.023  0.0000
   8   H4        0.7070    1.7910   -1.3620   hc 0 0.026  0.0000
   9   H5        0.7090    0.2270   -2.2620   hc 0 0.026  0.0000
  10   H6        1.7010   -0.9250   -0.2580   hc 0 0.026  0.0000
  11   H7        1.6990    0.6390    0.6420   hc 0 0.026  0.0000
  12   H8       -0.2920   -0.7430    1.2320   hc 0 0.023  0.0000
  13   H9       -0.8030    0.7810    0.3960   hc 0 0.023  0.0000
  14  H10       -0.8010   -0.7880   -0.5060   hc 0 0.023  0.0000
@<TRIPOS>BOND
    1     1     2  1
    2     1     5  1
    3     1     6  1
    4     1     7  1
    5     2     3  1
    6     2     8  1
    7     2     9  1
    8     3     4  1
    9     3    10  1
   10     3    11  1
   11     4    12  1
   12     4    13  1
   13     4    14  1

@<TRIPOS>MOLECULE
MOL
   14   13    0    0    0




@<TRIPOS>ATOM
   1   C1        2.6690    1.0520   -1.8840   c3 0 -0.06  0.0000
   2   C2        1.2420    0.8100   -1.4650   c3 0 -0.05  0.0000
   3   C3        1.1660    0.0560   -0.1540   c3 0 -0.05  0.0000
   4   C4       -0.2610   -0.1870    0.2650   c3 0 -0.06  0.0000
   5   H1        2.7663    2.0392   -2.3983   hc 0 0.023  0.0000
   6   H2        3.3464    1.0512   -0.9967   hc 0 0.023  0.0000
   7   H3        3.0077    0.2528   -2.5874   hc 0 0.023  0.0000
   8   H4        0.7070    1.7910   -1.3620   hc 0 0.026  0.0000
   9   H5        0.7090    0.2270   -2.2620   hc 0 0.026  0.0000
  10   H6        1.7010   -0.9250   -0.2580   hc 0 0.026  0.0000
  11   H7        1.6990    0.6390    0.6420   hc 0 0.026  0.0000
  12   H8       -0.2920   -0.7430    1.2320   hc 0 0.023  0.0000
  13   H9       -0.8030    0.7810    0.3960   hc 0 0.023  0.0000
  14  H10       -0.8010   -0.7880   -0.5060   hc 0 0.023  0.0000
@<TRIPOS>BOND
    1     1     2  1
    2     1     5  1
    3     1     6  1
    4     1     7  1
    5     2     3  1
    6     2     8  1
    7     2     9  1
    8     3     4  1
    9     3    10  1
   10     3    11  1
   11     4    12  1
   12     4    13  1
   13     4    14  1

@<TRIPOS>MOLECULE
MOL
   14   13    0    0    0




@<TRIPOS>ATOM
   1   C1        2.6690    1.0520   -1.8840   c3 0 -0.06  0.0000
   2   C2        1.2420    0.8100   -1.4650   c3 0 -0.05  0.0000
   3   C3        1.1660    0.0560   -0.1540   c3 0 -0.05  0.0000
   4   C4       -0.2610   -0.1870    0.2650   c3 0 -0.06  0.0000
   5   H1        2.7697    2.0470   -2.3822   hc 0 0.023  0.0000
   6   H2        3.3489    1.0333   -0.9987   hc 0 0.023  0.0000
   7   H3        3.0018    0.2629   -2.6015   hc 0 0.023  0.0000
   8   H4        0.7070    1.7910   -1.3620   hc 0 0.026  0.0000
   9   H5        0.7090    0.2270   -2.2620   hc 0 0.026  0.0000
  10   H6        1.7010   -0.9250   -0.2580   hc 0 0.026  0.0000
  11   H7        1.6990    0.6390    0.6420   hc 0 0.026  0.0000
  12   H8       -0.2920   -0.7430    1.2320   hc 0 0.023  0.0000
  13   H9       -0.8030    0.7810    0.3960   hc 0 0.023  0.0000
  14  H10       -0.8010   -0.7880   -0.5060   hc 0 0.023  0.0000
@<TRIPOS>BOND
    1     1     2  1
    2     1     5  1
    3     1     6  1
    4     1     7  1
    5     2     3  1
    6     2     8  1
    7     2     9  1
    8     3     4  1
    9     3    10  1
   10     3    11  1
   11     4    12  1
   12     4    13  1
   13     4    14  1

@<TRIPOS>MOLECULE
MOL
   14   13    0    0    0




@<TRIPOS>ATOM
   1   C1        2.6690    1.0520   -1.8840   c3 0 -0.06  0.0000
   2   C2        1.2420    0.8100   -1.4650   c3 0 -0.05  0.0000
   3   C3        1.1660    0.0560   -0.1540   c3 0 -0.05  0.0000
   4   C4       -0.2610   -0.1870    0.2650   c3 0 -0.06  0.0000
   5   H1        2.7732    2.0547   -2.3660   hc 0 0.023  0.0000
   6   H2        3.3512    1.0153   -1.0011   hc 0 0.023  0.0000
   7   H3        2.9960    0.2733   -2.6153   hc 0 0.023  0.0000
   8   H4        0.7070    1.7910   -1.3620   hc 0 0.026  0.0000
   9   H5        0.7090    0.2270   -2.2620   hc 0 0.026  0.0000
  10   H6        1.7010   -0.9250   -0.2580   hc 0 0.026  0.0000
  11   H7        1.6990    0.6390    0.6420   hc 0 0.026  0.0000
  12   H8       -0.2920   -0.7430    1.2320   hc 0 0.023  0.0000
  13   H9       -0.8030    0.7810    0.3960   hc 0 0.023  0.0000
  14  H10       -0.8010   -0.7880   -0.5060   hc 0 0.023  0.0000
@<TRIPOS>BOND
    1     1     2  1
    2     1     5  1
    3     1     6  1
    4     1     7  1
    5     2     3  1
    6     2     8  1
    7     2     9  1
    8     3     4  1
    9     3    10  1
   10     3    11  1
   11     4    12  1
   12     4    13  1
   13     4    14  1

@<TRIPOS>MOLECULE
MOL
   14   13    0    0    0




@<TRIPOS>ATOM
   1   C1        2.6690    1.0520   -1.8840   c3 0 -0.06  0.0000
   2   C2        1.2420    0.8100   -1.4650   c3 0 -0.05  0.0000
   3   C3        1.1660    0.0560   -0.1540   c3 0 -0.05  0.0000
   4   C4       -0.2610   -0.1870    0.2650   c3 0 -0.06  0.0000
   5   H1        2.7767    2.0620   -2.3496   hc 0 0.023  0.0000
   6   H2        3.3535    0.9974   -1.0038   hc 0 0.023  0.0000
   7   H3        2.9902    0.2839   -2.6290   hc 0 0.023  0.0000
   8   H4        0.7070    1.7910   -1.3620   hc 0 0.026  0.0000
   9   H5        0.7090    0.2270   -2.2620   hc 0 0.026  0.0000
  10   H6        1.7010   -0.9250   -0.2580   hc 0 0.026  0.0000
  11   H7        1.6990    0.6390    0.6420   hc 0 0.026  0.0000
  12   H8       -0.2920   -0.7430    1.2320   hc 0 0.023  0.0000
  13   H9       -0.8030    0.7810    0.3960   hc 0 0.023  0.0000
  14  H10       -0.8010   -0.7880   -0.5060   hc 0 0.023  0.0000
@<TRIPOS>BOND
    1     1     2  1
    2     1     5  1
    3     1     6  1
    4     1     7  1
    5     2     3  1
    6     2     8  1
    7     2     9  1
    8     3     4  1
    9     3    10  1
   10     3    11  1
   11     4    12  1
   12     4    13  1
   13     4    14  1

@<TRIPOS>MOLECULE
MOL
   14   13    0    0    0




@<TRIPOS>ATOM
   1   C1        2.6690    1.0520   -1.8840   c3 0 -0.06  0.0000
   2   C2        1.2420    0.8100   -1.4650   c3 0 -0.05  0.0000
   3   C3        1.1660    0.0560   -0.1540   c3 0 -0.05  0.0000
   4   C4       -0.2610   -0.1870    0.2650   c3 0 -0.06  0.0000
   5   H1        2.7803    2.0690   -2.3332   hc 0 0.023  0.0000
   6   H2        3.3556    0.9796   -1.0067   hc 0 0.023  0.0000
   7   H3        2.9844    0.2948   -2.6425   hc 0 0.023  0.0000
   8   H4        0.7070    1.7910   -1.3620   hc 0 0.026  0.0000
   9   H5        0.7090    0.2270   -2.2620   hc 0 0.026  0.0000
  10   H6        1.7010   -0.9250   -0.2580   hc 0 0.026  0.0000
  11   H7        1.6990    0.6390    0.6420   hc 0 0.026  0.0000
  12   H8       -0.2920   -0.7430    1.2320   hc 0 0.023  0.0000
  13   H9       -0.8030    0.7810    0.3960   hc 0 0.023  0.0000
  14  H10       -0.8010   -0.7880   -0.5060   hc 0 0.023  0.0000
@<TRIPOS>BOND
    1     1     2  1
    2     1     5  1
    3     1     6  1
    4     1     7  1
    5     2     3  1
    6     2     8  1
    7     2     9  1
    8     3     4  1
    9     3    10  1
   10     3    11  1
   11     4    12  1
   12     4    13  1
   13     4    14  1

@<TRIPOS>MOLECULE
MOL
   14   13    0    0    0




@<TRIPOS>ATOM
   1   C1        2.6690    1.0520   -1.8840   c3 0 -0.06  0.0000
   2   C2        1.2420    0.8100   -1.4650   c3 0 -0.05  0.0000
   3   C3        1.1660    0.0560   -0.1540   c3 0 -0.05  0.0000
   4   C4       -0.2610   -0.1870    0.2650   c3 0 -0.06  0.0000
   5   H1        2.7841    2.0757   -2.3166   hc 0 0.023  0.0000
   6   H2        3.3577    0.9618   -1.0100   hc 0 0.023  0.0000
   7   H3        2.9786    0.3059   -2.6558   hc 0 0.023  0.0000
   8   H4        0.7070    1.7910   -1.3620   hc 0 0.026  0.0000
   9   H5        0.7090    0.2270   -2.2620   hc 0 0.026  0.0000
  10   H6        1.7010   -0.9250   -0.2580   hc 0 0.026  0.0000
  11   H7        1.6990    0.6390    0.6420   hc 0 0.026  0.0000
  12   H8       -0.2920   -0.7430    1.2320   hc 0 0.023  0.0000
  13   H9       -0.8030    0.7810    0.3960   hc 0 0.023  0.0000
  14  H10       -0.8010   -0.7880   -0.5060   hc 0 0.023  0.0000
@<TRIPOS>BOND
    1     1     2  1
    2     1     5  1
    3     1     6  1
    4     1     7  1
    5     2     3  1
    6     2     8  1
    7     2     9  1
    8     3     4  1
    9     3    10  1
   10     3    11  1
   11     4    12  1
   12     4    13  1
   13     4    14  1

@<TRIPOS>MOLECULE
MOL
   14   13    0    0    0




@<TRIPOS>ATOM
   1   C1        2.6690    1.0520   -1.8840   c3 0 -0.06  0.0000
   2   C2        1.2420    0.8100   -1.4650   c3 0 -0.05  0.0000
   3   C3        1.1660    0.0560   -0.1540   c3 0 -0.05  0.0000
   4   C4       -0.2610   -0.1870    0.2650   c3 0 -0.06  0.0000
   5   H1        2.7879    2.0822   -2.3000   hc 0 0.023  0.0000
   6   H2        3.3597    0.9440   -1.0136   hc 0 0.023  0.0000
   7   H3        2.9728    0.3173   -2.6689   hc 0 0.023  0.0000
   8   H4        0.7070    1.7910   -1.3620   hc 0 0.026  0.0000
   9   H5        0.7090    0.2270   -2.2620   hc 0 0.026  0.0000
  10   H6        1.7010   -0.9250   -0.2580   hc 0 0.026  0.0000
  11   H7        1.6990    0.6390    0.6420   hc 0 0.026  0.0000
  12   H8       -0.2920   -0.7430    1.2320   hc 0 0.023  0.0000
  13   H9       -0.8030    0.7810    0.3960   hc 0 0.023  0.0000
  14  H10       -0.8010   -0.7880   -0.5060   hc 0 0.023  0.0000
@<TRIPOS>BOND
    1     1     2  1
    2     1     5  1
    3     1     6  1
    4     1     7  1
    5     2     3  1
    6     2     8  1
    7     2     9  1
    8     3     4  1
    9     3    10  1
   10     3    11  1
   11     4    12  1
   12     4    13  1
   13     4    14  1

@<TRIPOS>MOLECULE
MOL
   14   13    0    0    0




@<TRIPOS>ATOM
   1   C1        2.6690    1.0520   -1.8840   c3 0 -0.06  0.0000
   2   C2        1.2420    0.8100   -1.4650   c3 0 -0.05  0.0000
   3   C3        1.1660    0.0560   -0.1540   c3 0 -0.05  0.0000
   4   C4       -0.2610   -0.1870    0.2650   c3 0 -0.06  0.0000
   5   H1        2.7917    2.0883   -2.2832   hc 0 0.023  0.0000
   6   H2        3.3615    0.9263   -1.0175   hc 0 0.023  0.0000
   7   H3        2.9671    0.3289   -2.6818   hc 0 0.023  0.0000
   8   H4        0.7070    1.7910   -1.3620   hc 0 0.026  0.0000
   9   H5        0.7090    0.2270   -2.2620   hc 0 0.026  0.0000
  10   H6        1.7010   -0.9250   -0.2580   hc 0 0.026  0.0000
  11   H7        1.6990    0.6390    0.6420   hc 0 0.026  0.0000
  12   H8       -0.2920   -0.7430    1.2320   hc 0 0.023  0.0000
  13   H9       -0.8030    0.7810    0.3960   hc 0 0.023  0.0000
  14  H10       -0.8010   -0.7880   -0.5060   hc 0 0.023  0.0000
@<TRIPOS>BOND
    1     1     2  1
    2     1     5  1
    3     1     6  1
    4     1     7  1
    5     2     3  1
    6     2     8  1
    7     2     9  1
    8     3     4  1
    9     3    10  1
   10     3    11  1
   11     4    12  1
   12     4    13  1
   13     4    14  1

@<TRIPOS>MOLECULE
MOL
   14   13    0    0    0




@<TRIPOS>ATOM
   1   C1        2.6690    1.0520   -1.8840   c3 0 -0.06  0.0000
   2   C2        1.2420    0.8100   -1.4650   c3 0 -0.05  0.0000
   3   C3        1.1660    0.0560   -0.1540   c3 0 -0.05  0.0000
   4   C4       -0.2610   -0.1870    0.2650   c3 0 -0.06  0.0000
   5   H1        2.7957    2.0942   -2.2664   hc 0 0.023  0.0000
   6   H2        3.3633    0.9087   -1.0216   hc 0 0.023  0.0000
   7   H3        2.9613    0.3408   -2.6945   hc 0 0.023  0.0000
   8   H4        0.7070    1.7910   -1.3620   hc 0 0.026  0.0000
   9   H5        0.7090    0.2270   -2.2620   hc 0 0.026  0.0000
  10   H6        1.7010   -0.9250   -0.2580   hc 0 0.026  0.0000
  11   H7        1.6990    0.6390    0.6420   hc 0 0.026  0.0000
  12   H8       -0.2920   -0.7430    1.2320   hc 0 0.023  0.0000
  13   H9       -0.8030    0.7810    0.3960   hc 0 0.023  0.0000
  14  H10       -0.8010   -0.7880   -0.5060   hc 0 0.023  0.0000
@<TRIPOS>BOND
    1     1     2  1
    2     1     5  1
    3     1     6  1
    4     1     7  1
    5     2     3  1
    6     2     8  1
    7     2     9  1
    8     3     4  1
    9     3    10  1
   10     3    11  1
   11     4    12  1
   12     4    13  1
   13     4    14  1

@<TRIPOS>MOLECULE
MOL
   14   13    0    0    0




@<TRIPOS>ATOM
   1   C1        2.6690    1.0520   -1.8840   c3 0 -0.06  0.0000
   2   C2        1.2420    0.8100   -1.4650   c3 0 -0.05  0.0000
   3   C3        1.1660    0.0560   -0.1540   c3 0 -0.05  0.0000
   4   C4       -0.2610   -0.1870    0.2650   c3 0 -0.06  0.0000
   5   H1        2.7997    2.0997   -2.2495   hc 0 0.023  0.0000
   6   H2        3.3650    0.8911   -1.0261   hc 0 0.023  0.0000
   7   H3        2.9556    0.3528   -2.7070   hc 0 0.023  0.0000
   8   H4        0.7070    1.7910   -1.3620   hc 0 0.026  0.0000
   9   H5        0.7090    0.2270   -2.2620   hc 0 0.026  0.0000
  10   H6        1.7010   -0.9250   -0.2580   hc 0 0.026  0.0000
  11   H7        1.6990    0.6390    0.6420   hc 0 0.026  0.0000
  12   H8       -0.2920   -0.7430    1.2320   hc 0 0.023  0.0000
  13   H9       -0.8030    0.7810    0.3960   hc 0 0.023  0.0000
  14  H10       -0.8010   -0.7880   -0.5060   hc 0 0.023  0.0000
@<TRIPOS>BOND
    1     1     2  1
    2     1     5  1
    3     1     6  1
    4     1     7  1
    5     2     3  1
    6     2     8  1
    7     2     9  1
    8     3     4  1
    9     3    10  1
   10     3    11  1
   11     4    12  1
   12     4    13  1
   13     4    14  1

@<TRIPOS>MOLECULE
MOL
   14   13    0    0    0




@<TRIPOS>ATOM
   1   C1        2.6690    1.0520   -1.8840   c3 0 -0.06  0.0000
   2   C2        1.2420    0.8100   -1.4650   c3 0 -0.05  0.0000
   3   C3        1.1660    0.0560   -0.1540   c3 0 -0.05  0.0000
   4   C4       -0.2610   -0.1870    0.2650   c3 0 -0.06  0.0000
   5   H1        2.8038    2.1050   -2.2325   hc 0 0.023  0.0000
   6   H2        3.3665    0.8735   -1.0308   hc 0 0.023  0.0000
   7   H3        2.9499    0.3652   -2.7192   hc 0 0.023  0.0000
   8   H4        0.7070    1.7910   -1.3620   hc 0 0.026  0.0000
   9   H5        0.7090    0.2270   -2.2620   hc 0 0.026  0.0000
  10   H6        1.7010   -0.9250   -0.2580   hc 0 0.026  0.0000
  11   H7        1.6990    0.6390    0.6420   hc 0 0.026  0.0000
  12   H8       -0.2920   -0.7430    1.2320   hc 0 0.023  0.0000
  13   H9       -0.8030    0.7810    0.3960   hc 0 0.023  0.0000
  14  H10       -0.8010   -0.7880   -0.5060   hc 0 0.023  0.0000
@<TRIPOS>BOND
    1     1     2  1
    2     1     5  1
    3     1     6  1
    4     1     7  1
    5     2     3  1
    6     2     8  1
    7     2     9  1
    8     3     4  1
    9     3    10  1
   10     3    11  1
   11     4    12  1
   12     4    13  1
   13     4    14  1

@<TRIPOS>MOLECULE
MOL
   14   13    0    0    0




@<TRIPOS>ATOM
   1   C1        2.6690    1.0520   -1.8840   c3 0 -0.06  0.0000
   2   C2        1.2420    0.8100   -1.4650   c3 0 -0.05  0.0000
   3   C3        1.1660    0.0560   -0.1540   c3 0 -0.05  0.0000
   4   C4       -0.2610   -0.1870    0.2650   c3 0 -0.06  0.0000
   5   H1        2.8080    2.1100   -2.2154   hc 0 0.023  0.0000
   6   H2        3.3680    0.8561   -1.0359   hc 0 0.023  0.0000
   7   H3        2.9443    0.3777   -2.7312   hc 0 0.023  0.0000
   8   H4        0.7070    1.7910   -1.3620   hc 0 0.026  0.0000
   9   H5        0.7090    0.2270   -2.2620   hc 0 0.026  0.0000
  10   H6        1.7010   -0.9250   -0.2580   hc 0 0.026  0.0000
  11   H7        1.6990    0.6390    0.6420   hc 0 0.026  0.0000
  12   H8       -0.2920   -0.7430    1.2320   hc 0 0.023  0.0000
  13   H9       -0.8030    0.7810    0.3960   hc 0 0.023  0.0000
  14  H10       -0.8010   -0.7880   -0.5060   hc 0 0.023  0.0000
@<TRIPOS>BOND
    1     1     2  1
    2     1     5  1
    3     1     6  1
    4     1     7  1
    5     2     3  1
    6     2     8  1
    7     2     9  1
    8     3     4  1
    9     3    10  1
   10     3    11  1
   11     4    12  1
   12     4    13  1
   13     4    14  1

@<TRIPOS>MOLECULE
MOL
   14   13    0    0    0




@<TRIPOS>ATOM
   1   C1        2.6690    1.0520   -1.8840   c3 0 -0.06  0.0000
   2   C2        1.2420    0.8100   -1.4650   c3 0 -0.05  0.0000
   3   C3        1.1660    0.0560   -0.1540   c3 0 -0.05  0.0000
   4   C4       -0.2610   -0.1870    0.2650   c3 0 -0.06  0.0000
   5   H1        2.8122    2.1146   -2.1983   hc 0 0.023  0.0000
   6   H2        3.3694    0.8387   -1.0412   hc 0 0.023  0.0000
   7   H3        2.9386    0.3905   -2.7431   hc 0 0.023  0.0000
   8   H4        0.7070    1.7910   -1.3620   hc 0 0.026  0.0000
   9   H5        0.7090    0.2270   -2.2620   hc 0 0.026  0.0000
  10   H6        1.7010   -0.9250   -0.2580   hc 0 0.026  0.0000
  11   H7        1.6990    0.6390    0.6420   hc 0 0.026  0.0000
  12   H8       -0.2920   -0.7430    1.2320   hc 0 0.023  0.0000
  13   H9       -0.8030    0.7810    0.3960   hc 0 0.023  0.0000
  14  H10       -0.8010   -0.7880   -0.5060   hc 0 0.023  0.0000
@<TRIPOS>BOND
    1     1     2  1
    2     1     5  1
    3     1     6  1
    4     1     7  1
    5     2     3  1
    6     2     8  1
    7     2     9  1
    8     3     4  1
    9     3    10  1
   10     3    11  1
   11     4    12  1
   12     4    13  1
   13     4    14  1

@<TRIPOS>MOLECULE
MOL
   14   13    0    0    0




@<TRIPOS>ATOM
   1   C1        2.6690    1.0520   -1.8840   c3 0 -0.06  0.0000
   2   C2        1.2420    0.8100   -1.4650   c3 0 -0.05  0.0000
   3   C3        1.1660    0.0560   -0.1540   c3 0 -0.05  0.0000
   4   C4       -0.2610   -0.1870    0.2650   c3 0 -0.06  0.0000
   5   H1        2.8165    2.1190   -2.1811   hc 0 0.023  0.0000
   6   H2        3.3707    0.8214   -1.0469   hc 0 0.023  0.0000
   7   H3        2.9330    0.4035   -2.7546   hc 0 0.023  0.0000
   8   H4        0.7070    1.7910   -1.3620   hc 0 0.026  0.0000
   9   H5        0.7090    0.2270   -2.2620   hc 0 0.026  0.0000
  10   H6        1.7010   -0.9250   -0.2580   hc 0 0.026  0.0000
  11   H7        1.6990    0.6390    0.6420   hc 0 0.026  0.0000
  12   H8       -0.2920   -0.7430    1.2320   hc 0 0.023  0.0000
  13   H9       -0.8030    0.7810    0.3960   hc 0 0.023  0.0000
  14  H10       -0.8010   -0.7880   -0.5060   hc 0 0.023  0.0000
@<TRIPOS>BOND
    1     1     2  1
    2     1     5  1
    3     1     6  1
    4     1     7  1
    5     2     3  1
    6     2     8  1
    7     2     9  1
    8     3     4  1
    9     3    10  1
   10     3    11  1
   11     4    12  1
   12     4    13  1
   13     4    14  1

@<TRIPOS>MOLECULE
MOL
   14   13    0    0    0




@<TRIPOS>ATOM
   1   C1        2.6690    1.0520   -1.8840   c3 0 -0.06  0.0000
   2   C2        1.2420    0.8100   -1.4650   c3 0 -0.05  0.0000
   3   C3        1.1660    0.0560   -0.1540   c3 0 -0.05  0.0000
   4   C4       -0.2610   -0.1870    0.2650   c3 0 -0.06  0.0000
   5   H1        2.8209    2.1230   -2.1639   hc 0 0.023  0.0000
   6   H2        3.3718    0.8042   -1.0528   hc 0 0.023  0.0000
   7   H3        2.9275    0.4167   -2.7660   hc 0 0.023  0.0000
   8   H4        0.7070    1.7910   -1.3620   hc 0 0.026  0.0000
   9   H5        0.7090    0.2270   -2.2620   hc 0 0.026  0.0000
  10   H6        1.7010   -0.9250   -0.2580   hc 0 0.026  0.0000
  11   H7        1.6990    0.6390    0.6420   hc 0 0.026  0.0000
  12   H8       -0.2920   -0.7430    1.2320   hc 0 0.023  0.0000
  13   H9       -0.8030    0.7810    0.3960   hc 0 0.023  0.0000
  14  H10       -0.8010   -0.7880   -0.5060   hc 0 0.023  0.0000
@<TRIPOS>BOND
    1     1     2  1
    2     1     5  1
    3     1     6  1
    4     1     7  1
    5     2     3  1
    6     2     8  1
    7     2     9  1
    8     3     4  1
    9     3    10  1
   10     3    11  1
   11     4    12  1
   12     4    13  1
   13     4    14  1

@<TRIPOS>MOLECULE
MOL
   14   13    0    0    0




@<TRIPOS>ATOM
   1   C1        2.6690    1.0520   -1.8840   c3 0 -0.06  0.0000
   2   C2        1.2420    0.8100   -1.4650   c3 0 -0.05  0.0000
   3   C3        1.1660    0.0560   -0.1540   c3 0 -0.05  0.0000
   4   C4       -0.2610   -0.1870    0.2650   c3 0 -0.06  0.0000
   5   H1        2.8253    2.1267   -2.1466   hc 0 0.023  0.0000
   6   H2        3.3729    0.7871   -1.0590   hc 0 0.023  0.0000
   7   H3        2.9219    0.4302   -2.7771   hc 0 0.023  0.0000
   8   H4        0.7070    1.7910   -1.3620   hc 0 0.026  0.0000
   9   H5        0.7090    0.2270   -2.2620   hc 0 0.026  0.0000
  10   H6        1.7010   -0.9250   -0.2580   hc 0 0.026  0.0000
  11   H7        1.6990    0.6390    0.6420   hc 0 0.026  0.0000
  12   H8       -0.2920   -0.7430    1.2320   hc 0 0.023  0.0000
  13   H9       -0.8030    0.7810    0.3960   hc 0 0.023  0.0000
  14  H10       -0.8010   -0.7880   -0.5060   hc 0 0.023  0.0000
@<TRIPOS>BOND
    1     1     2  1
    2     1     5  1
    3     1     6  1
    4     1     7  1
    5     2     3  1
    6     2     8  1
    7     2     9  1
    8     3     4  1
    9     3    10  1
   10     3    11  1
   11     4    12  1
   12     4    13  1
   13     4    14  1

@<TRIPOS>MOLECULE
MOL
   14   13    0    0    0




@<TRIPOS>ATOM
   1   C1        2.6690    1.0520   -1.8840   c3 0 -0.06  0.0000
   2   C2        1.2420    0.8100   -1.4650   c3 0 -0.05  0.0000
   3   C3        1.1660    0.0560   -0.1540   c3 0 -0.05  0.0000
   4   C4       -0.2610   -0.1870    0.2650   c3 0 -0.06  0.0000
   5   H1        2.8299    2.1302   -2.1292   hc 0 0.023  0.0000
   6   H2        3.3739    0.7701   -1.0655   hc 0 0.023  0.0000
   7   H3        2.9164    0.4438   -2.7879   hc 0 0.023  0.0000
   8   H4        0.7070    1.7910   -1.3620   hc 0 0.026  0.0000
   9   H5        0.7090    0.2270   -2.2620   hc 0 0.026  0.0000
  10   H6        1.7010   -0.9250   -0.2580   hc 0 0.026  0.0000
  11   H7        1.6990    0.6390    0.6420   hc 0 0.026  0.0000
  12   H8       -0.2920   -0.7430    1.2320   hc 0 0.023  0.0000
  13   H9       -0.8030    0.7810    0.3960   hc 0 0.023  0.0000
  14  H10       -0.8010   -0.7880   -0.5060   hc 0 0.023  0.0000
@<TRIPOS>BOND
    1     1     2  1
    2     1     5  1
    3     1     6  1
    4     1     7  1
    5     2     3  1
    6     2     8  1
    7     2     9  1
    8     3     4  1
    9     3    10  1
   10     3    11  1
   11     4    12  1
   12     4    13  1
   13     4    14  1

@<TRIPOS>MOLECULE
MOL
   14   13    0    0    0




@<TRIPOS>ATOM
   1   C1        2.6690    1.0520   -1.8840   c3 0 -0.06  0.0000
   2   C2        1.2420    0.8100   -1.4650   c3 0 -0.05  0.0000
   3   C3        1.1660    0.0560   -0.1540   c3 0 -0.05  0.0000
   4   C4       -0.2610   -0.1870    0.2650   c3 0 -0.06  0.0000
   5   H1        2.8344    2.1333   -2.1118   hc 0 0.023  0.0000
   6   H2        3.3748    0.7532   -1.0723   hc 0 0.023  0.0000
   7   H3        2.9109    0.4576   -2.7986   hc 0 0.023  0.0000
   8   H4        0.7070    1.7910   -1.3620   hc 0 0.026  0.0000
   9   H5        0.7090    0.2270   -2.2620   hc 0 0.026  0.0000
  10   H6        1.7010   -0.9250   -0.2580   hc 0 0.026  0.0000
  11   H7        1.6990    0.6390    0.6420   hc 0 0.026  0.0000
  12   H8       -0.2920   -0.7430    1.2320   hc 0 0.023  0.0000
  13   H9       -0.8030    0.7810    0.3960   hc 0 0.023  0.0000
  14  H10       -0.8010   -0.7880   -0.5060   hc 0 0.023  0.0000
@<TRIPOS>BOND
    1     1     2  1
    2     1     5  1
    3     1     6  1
    4     1     7  1
    5     2     3  1
    6     2     8  1
    7     2     9  1
    8     3     4  1
    9     3    10  1
   10     3    11  1
   11     4    12  1
   12     4    13  1
   13     4    14  1

@<TRIPOS>MOLECULE
MOL
   14   13    0    0    0




@<TRIPOS>ATOM
   1   C1        2.6690    1.0520   -1.8840   c3 0 -0.06  0.0000
   2   C2        1.2420    0.8100   -1.4650   c3 0 -0.05  0.0000
   3   C3        1.1660    0.0560   -0.1540   c3 0 -0.05  0.0000
   4   C4       -0.2610   -0.1870    0.2650   c3 0 -0.06  0.0000
   5   H1        2.8391    2.1361   -2.0944   hc 0 0.023  0.0000
   6   H2        3.3756    0.7364   -1.0793   hc 0 0.023  0.0000
   7   H3        2.9055    0.4717   -2.8089   hc 0 0.023  0.0000
   8   H4        0.7070    1.7910   -1.3620   hc 0 0.026  0.0000
   9   H5        0.7090    0.2270   -2.2620   hc 0 0.026  0.0000
  10   H6        1.7010   -0.9250   -0.2580   hc 0 0.026  0.0000
  11   H7        1.6990    0.6390    0.6420   hc 0 0.026  0.0000
  12   H8       -0.2920   -0.7430    1.2320   hc 0 0.023  0.0000
  13   H9       -0.8030    0.7810    0.3960   hc 0 0.023  0.0000
  14  H10       -0.8010   -0.7880   -0.5060   hc 0 0.023  0.0000
@<TRIPOS>BOND
    1     1     2  1
    2     1     5  1
    3     1     6  1
    4     1     7  1
    5     2     3  1
    6     2     8  1
    7     2     9  1
    8     3     4  1
    9     3    10  1
   10     3    11  1
   11     4    12  1
   12     4    13  1
   13     4    14  1

@<TRIPOS>MOLECULE
MOL
   14   13    0    0    0




@<TRIPOS>ATOM
   1   C1        2.6690    1.0520   -1.8840   c3 0 -0.06  0.0000
   2   C2        1.2420    0.8100   -1.4650   c3 0 -0.05  0.0000
   3   C3        1.1660    0.0560   -0.1540   c3 0 -0.05  0.0000
   4   C4       -0.2610   -0.1870    0.2650   c3 0 -0.06  0.0000
   5   H1        2.8438    2.1386   -2.0770   hc 0 0.023  0.0000
   6   H2        3.3762    0.7198   -1.0867   hc 0 0.023  0.0000
   7   H3        2.9001    0.4859   -2.8191   hc 0 0.023  0.0000
   8   H4        0.7070    1.7910   -1.3620   hc 0 0.026  0.0000
   9   H5        0.7090    0.2270   -2.2620   hc 0 0.026  0.0000
  10   H6        1.7010   -0.9250   -0.2580   hc 0 0.026  0.0000
  11   H7        1.6990    0.6390    0.6420   hc 0 0.026  0.0000
  12   H8       -0.2920   -0.7430    1.2320   hc 0 0.023  0.0000
  13   H9       -0.8030    0.7810    0.3960   hc 0 0.023  0.0000
  14  H10       -0.8010   -0.7880   -0.5060   hc 0 0.023  0.0000
@<TRIPOS>BOND
    1     1     2  1
    2     1     5  1
    3     1     6  1
    4     1     7  1
    5     2     3  1
    6     2     8  1
    7     2     9  1
    8     3     4  1
    9     3    10  1
   10     3    11  1
   11     4    12  1
   12     4    13  1
   13     4    14  1

@<TRIPOS>MOLECULE
MOL
   14   13    0    0    0




@<TRIPOS>ATOM
   1   C1        2.6690    1.0520   -1.8840   c3 0 -0.06  0.0000
   2   C2        1.2420    0.8100   -1.4650   c3 0 -0.05  0.0000
   3   C3        1.1660    0.0560   -0.1540   c3 0 -0.05  0.0000
   4   C4       -0.2610   -0.1870    0.2650   c3 0 -0.06  0.0000
   5   H1        2.8485    2.1408   -2.0595   hc 0 0.023  0.0000
   6   H2        3.3768    0.7032   -1.0943   hc 0 0.023  0.0000
   7   H3        2.8948    0.5003   -2.8290   hc 0 0.023  0.0000
   8   H4        0.7070    1.7910   -1.3620   hc 0 0.026  0.0000
   9   H5        0.7090    0.2270   -2.2620   hc 0 0.026  0.0000
  10   H6        1.7010   -0.9250   -0.2580   hc 0 0.026  0.0000
  11   H7        1.6990    0.6390    0.6420   hc 0 0.026  0.0000
  12   H8       -0.2920   -0.7430    1.2320   hc 0 0.023  0.0000
  13   H9       -0.8030    0.7810    0.3960   hc 0 0.023  0.0000
  14  H10       -0.8010   -0.7880   -0.5060   hc 0 0.023  0.0000
@<TRIPOS>BOND
    1     1     2  1
    2     1     5  1
    3     1     6  1
    4     1     7  1
    5     2     3  1
    6     2     8  1
    7     2     9  1
    8     3     4  1
    9     3    10  1
   10     3    11  1
   11     4    12  1
   12     4    13  1
   13     4    14  1

@<TRIPOS>MOLECULE
MOL
   14   13    0    0    0




@<TRIPOS>ATOM
   1   C1        2.6690    1.0520   -1.8840   c3 0 -0.06  0.0000
   2   C2        1.2420    0.8100   -1.4650   c3 0 -0.05  0.0000
   3   C3        1.1660    0.0560   -0.1540   c3 0 -0.05  0.0000
   4   C4       -0.2610   -0.1870    0.2650   c3 0 -0.06  0.0000
   5   H1        2.8534    2.1426   -2.0420   hc 0 0.023  0.0000
   6   H2        3.3773    0.6868   -1.1022   hc 0 0.023  0.0000
   7   H3        2.8895    0.5150   -2.8386   hc 0 0.023  0.0000
   8   H4        0.7070    1.7910   -1.3620   hc 0 0.026  0.0000
   9   H5        0.7090    0.2270   -2.2620   hc 0 0.026  0.0000
  10   H6        1.7010   -0.9250   -0.2580   hc 0 0.026  0.0000
  11   H7        1.6990    0.6390    0.6420   hc 0 0.026  0.0000
  12   H8       -0.2920   -0.7430    1.2320   hc 0 0.023  0.0000
  13   H9       -0.8030    0.7810    0.3960   hc 0 0.023  0.0000
  14  H10       -0.8010   -0.7880   -0.5060   hc 0 0.023  0.0000
@<TRIPOS>BOND
    1     1     2  1
    2     1     5  1
    3     1     6  1
    4     1     7  1
    5     2     3  1
    6     2     8  1
    7     2     9  1
    8     3     4  1
    9     3    10  1
   10     3    11  1
   11     4    12  1
   12     4    13  1
   13     4    14  1

@<TRIPOS>MOLECULE
MOL
   14   13    0    0    0




@<TRIPOS>ATOM
   1   C1        2.6690    1.0520   -1.8840   c3 0 -0.06  0.0000
   2   C2        1.2420    0.8100   -1.4650   c3 0 -0.05  0.0000
   3   C3        1.1660    0.0560   -0.1540   c3 0 -0.05  0.0000
   4   C4       -0.2610   -0.1870    0.2650   c3 0 -0.06  0.0000
   5   H1        2.8582    2.1442   -2.0245   hc 0 0.023  0.0000
   6   H2        3.3776    0.6705   -1.1103   hc 0 0.023  0.0000
   7   H3        2.8842    0.5298   -2.8479   hc 0 0.023  0.0000
   8   H4        0.7070    1.7910   -1.3620   hc 0 0.026  0.0000
   9   H5        0.7090    0.2270   -2.2620   hc 0 0.026  0.0000
  10   H6        1.7010   -0.9250   -0.2580   hc 0 0.026  0.0000
  11   H7        1.6990    0.6390    0.6420   hc 0 0.026  0.0000
  12   H8       -0.2920   -0.7430    1.2320   hc 0 0.023  0.0000
  13   H9       -0.8030    0.7810    0.3960   hc 0 0.023  0.0000
  14  H10       -0.8010   -0.7880   -0.5060   hc 0 0.023  0.0000
@<TRIPOS>BOND
    1     1     2  1
    2     1     5  1
    3     1     6  1
    4     1     7  1
    5     2     3  1
    6     2     8  1
    7     2     9  1
    8     3     4  1
    9     3    10  1
   10     3    11  1
   11     4    12  1
   12     4    13  1
   13     4    14  1

@<TRIPOS>MOLECULE
MOL
   14   13    0    0    0




@<TRIPOS>ATOM
   1   C1        2.6690    1.0520   -1.8840   c3 0 -0.06  0.0000
   2   C2        1.2420    0.8100   -1.4650   c3 0 -0.05  0.0000
   3   C3        1.1660    0.0560   -0.1540   c3 0 -0.05  0.0000
   4   C4       -0.2610   -0.1870    0.2650   c3 0 -0.06  0.0000
   5   H1        2.8632    2.1454   -2.0069   hc 0 0.023  0.0000
   6   H2        3.3779    0.6543   -1.1187   hc 0 0.023  0.0000
   7   H3        2.8790    0.5447   -2.8570   hc 0 0.023  0.0000
   8   H4        0.7070    1.7910   -1.3620   hc 0 0.026  0.0000
   9   H5        0.7090    0.2270   -2.2620   hc 0 0.026  0.0000
  10   H6        1.7010   -0.9250   -0.2580   hc 0 0.026  0.0000
  11   H7        1.6990    0.6390    0.6420   hc 0 0.026  0.0000
  12   H8       -0.2920   -0.7430    1.2320   hc 0 0.023  0.0000
  13   H9       -0.8030    0.7810    0.3960   hc 0 0.023  0.0000
  14  H10       -0.8010   -0.7880   -0.5060   hc 0 0.023  0.0000
@<TRIPOS>BOND
    1     1     2  1
    2     1     5  1
    3     1     6  1
    4     1     7  1
    5     2     3  1
    6     2     8  1
    7     2     9  1
    8     3     4  1
    9     3    10  1
   10     3    11  1
   11     4    12  1
   12     4    13  1
   13     4    14  1

@<TRIPOS>MOLECULE
MOL
   14   13    0    0    0




@<TRIPOS>ATOM
   1   C1        2.6690    1.0520   -1.8840   c3 0 -0.06  0.0000
   2   C2        1.2420    0.8100   -1.4650   c3 0 -0.05  0.0000
   3   C3        1.1660    0.0560   -0.1540   c3 0 -0.05  0.0000
   4   C4       -0.2610   -0.1870    0.2650   c3 0 -0.06  0.0000
   5   H1        2.8682    2.1464   -1.9894   hc 0 0.023  0.0000
   6   H2        3.3781    0.6383   -1.1274   hc 0 0.023  0.0000
   7   H3        2.8738    0.5599   -2.8659   hc 0 0.023  0.0000
   8   H4        0.7070    1.7910   -1.3620   hc 0 0.026  0.0000
   9   H5        0.7090    0.2270   -2.2620   hc 0 0.026  0.0000
  10   H6        1.7010   -0.9250   -0.2580   hc 0 0.026  0.0000
  11   H7        1.6990    0.6390    0.6420   hc 0 0.026  0.0000
  12   H8       -0.2920   -0.7430    1.2320   hc 0 0.023  0.0000
  13   H9       -0.8030    0.7810    0.3960   hc 0 0.023  0.0000
  14  H10       -0.8010   -0.7880   -0.5060   hc 0 0.023  0.0000
@<TRIPOS>BOND
    1     1     2  1
    2     1     5  1
    3     1     6  1
    4     1     7  1
    5     2     3  1
    6     2     8  1
    7     2     9  1
    8     3     4  1
    9     3    10  1
   10     3    11  1
   11     4    12  1
   12     4    13  1
   13     4    14  1

@<TRIPOS>MOLECULE
MOL
   14   13    0    0    0




@<TRIPOS>ATOM
   1   C1        2.6690    1.0520   -1.8840   c3 0 -0.06  0.0000
   2   C2        1.2420    0.8100   -1.4650   c3 0 -0.05  0.0000
   3   C3        1.1660    0.0560   -0.1540   c3 0 -0.05  0.0000
   4   C4       -0.2610   -0.1870    0.2650   c3 0 -0.06  0.0000
   5   H1        2.8732    2.1470   -1.9719   hc 0 0.023  0.0000
   6   H2        3.3781    0.6225   -1.1364   hc 0 0.023  0.0000
   7   H3        2.8687    0.5752   -2.8745   hc 0 0.023  0.0000
   8   H4        0.7070    1.7910   -1.3620   hc 0 0.026  0.0000
   9   H5        0.7090    0.2270   -2.2620   hc 0 0.026  0.0000
  10   H6        1.7010   -0.9250   -0.2580   hc 0 0.026  0.0000
  11   H7        1.6990    0.6390    0.6420   hc 0 0.026  0.0000
  12   H8       -0.2920   -0.7430    1.2320   hc 0 0.023  0.0000
  13   H9       -0.8030    0.7810    0.3960   hc 0 0.023  0.0000
  14  H10       -0.8010   -0.7880   -0.5060   hc 0 0.023  0.0000
@<TRIPOS>BOND
    1     1     2  1
    2     1     5  1
    3     1     6  1
    4     1     7  1
    5     2     3  1
    6     2     8  1
    7     2     9  1
    8     3     4  1
    9     3    10  1
   10     3    11  1
   11     4    12  1
   12     4    13  1
   13     4    14  1

@<TRIPOS>MOLECULE
MOL
   14   13    0    0    0




@<TRIPOS>ATOM
   1   C1        2.6690    1.0520   -1.8840   c3 0 -0.06  0.0000
   2   C2        1.2420    0.8100   -1.4650   c3 0 -0.05  0.0000
   3   C3        1.1660    0.0560   -0.1540   c3 0 -0.05  0.0000
   4   C4       -0.2610   -0.1870    0.2650   c3 0 -0.06  0.0000
   5   H1        2.8783    2.1473   -1.9543   hc 0 0.023  0.0000
   6   H2        3.3781    0.6067   -1.1456   hc 0 0.023  0.0000
   7   H3        2.8637    0.5907   -2.8828   hc 0 0.023  0.0000
   8   H4        0.7070    1.7910   -1.3620   hc 0 0.026  0.0000
   9   H5        0.7090    0.2270   -2.2620   hc 0 0.026  0.0000
  10   H6        1.7010   -0.9250   -0.2580   hc 0 0.026  0.0000
  11   H7        1.6990    0.6390    0.6420   hc 0 0.026  0.0000
  12   H8       -0.2920   -0.7430    1.2320   hc 0 0.023  0.0000
  13   H9       -0.8030    0.7810    0.3960   hc 0 0.023  0.0000
  14  H10       -0.8010   -0.7880   -0.5060   hc 0 0.023  0.0000
@<TRIPOS>BOND
    1     1     2  1
    2     1     5  1
    3     1     6  1
    4     1     7  1
    5     2     3  1
    6     2     8  1
    7     2     9  1
    8     3     4  1
    9     3    10  1
   10     3    11  1
   11     4    12  1
   12     4    13  1
   13     4    14  1

@<TRIPOS>MOLECULE
MOL
   14   13    0    0    0




@<TRIPOS>ATOM
   1   C1        2.6690    1.0520   -1.8840   c3 0 -0.06  0.0000
   2   C2        1.2420    0.8100   -1.4650   c3 0 -0.05  0.0000
   3   C3        1.1660    0.0560   -0.1540   c3 0 -0.05  0.0000
   4   C4       -0.2610   -0.1870    0.2650   c3 0 -0.06  0.0000
   5   H1        2.8834    2.1473   -1.9368   hc 0 0.023  0.0000
   6   H2        3.3779    0.5912   -1.1551   hc 0 0.023  0.0000
   7   H3        2.8586    0.6063   -2.8908   hc 0 0.023  0.0000
   8   H4        0.7070    1.7910   -1.3620   hc 0 0.026  0.0000
   9   H5        0.7090    0.2270   -2.2620   hc 0 0.026  0.0000
  10   H6        1.7010   -0.9250   -0.2580   hc 0 0.026  0.0000
  11   H7        1.6990    0.6390    0.6420   hc 0 0.026  0.0000
  12   H8       -0.2920   -0.7430    1.2320   hc 0 0.023  0.0000
  13   H9       -0.8030    0.7810    0.3960   hc 0 0.023  0.0000
  14  H10       -0.8010   -0.7880   -0.5060   hc 0 0.023  0.0000
@<TRIPOS>BOND
    1     1     2  1
    2     1     5  1
    3     1     6  1
    4     1     7  1
    5     2     3  1
    6     2     8  1
    7     2     9  1
    8     3     4  1
    9     3    10  1
   10     3    11  1
   11     4    12  1
   12     4    13  1
   13     4    14  1

@<TRIPOS>MOLECULE
MOL
   14   13    0    0    0




@<TRIPOS>ATOM
   1   C1        2.6690    1.0520   -1.8840   c3 0 -0.06  0.0000
   2   C2        1.2420    0.8100   -1.4650   c3 0 -0.05  0.0000
   3   C3        1.1660    0.0560   -0.1540   c3 0 -0.05  0.0000
   4   C4       -0.2610   -0.1870    0.2650   c3 0 -0.06  0.0000
   5   H1        2.8886    2.1470   -1.9193   hc 0 0.023  0.0000
   6   H2        3.3777    0.5758   -1.1648   hc 0 0.023  0.0000
   7   H3        2.8537    0.6221   -2.8986   hc 0 0.023  0.0000
   8   H4        0.7070    1.7910   -1.3620   hc 0 0.026  0.0000
   9   H5        0.7090    0.2270   -2.2620   hc 0 0.026  0.0000
  10   H6        1.7010   -0.9250   -0.2580   hc 0 0.026  0.0000
  11   H7        1.6990    0.6390    0.6420   hc 0 0.026  0.0000
  12   H8       -0.2920   -0.7430    1.2320   hc 0 0.023  0.0000
  13   H9       -0.8030    0.7810    0.3960   hc 0 0.023  0.0000
  14  H10       -0.8010   -0.7880   -0.5060   hc 0 0.023  0.0000
@<TRIPOS>BOND
    1     1     2  1
    2     1     5  1
    3     1     6  1
    4     1     7  1
    5     2     3  1
    6     2     8  1
    7     2     9  1
    8     3     4  1
    9     3    10  1
   10     3    11  1
   11     4    12  1
   12     4    13  1
   13     4    14  1

@<TRIPOS>MOLECULE
MOL
   14   13    0    0    0




@<TRIPOS>ATOM
   1   C1        2.6690    1.0520   -1.8840   c3 0 -0.06  0.0000
   2   C2        1.2420    0.8100   -1.4650   c3 0 -0.05  0.0000
   3   C3        1.1660    0.0560   -0.1540   c3 0 -0.05  0.0000
   4   C4       -0.2610   -0.1870    0.2650   c3 0 -0.06  0.0000
   5   H1        2.8939    2.1463   -1.9019   hc 0 0.023  0.0000
   6   H2        3.3774    0.5605   -1.1748   hc 0 0.023  0.0000
   7   H3        2.8488    0.6381   -2.9060   hc 0 0.023  0.0000
   8   H4        0.7070    1.7910   -1.3620   hc 0 0.026  0.0000
   9   H5        0.7090    0.2270   -2.2620   hc 0 0.026  0.0000
  10   H6        1.7010   -0.9250   -0.2580   hc 0 0.026  0.0000
  11   H7        1.6990    0.6390    0.6420   hc 0 0.026  0.0000
  12   H8       -0.2920   -0.7430    1.2320   hc 0 0.023  0.0000
  13   H9       -0.8030    0.7810    0.3960   hc 0 0.023  0.0000
  14  H10       -0.8010   -0.7880   -0.5060   hc 0 0.023  0.0000
@<TRIPOS>BOND
    1     1     2  1
    2     1     5  1
    3     1     6  1
    4     1     7  1
    5     2     3  1
    6     2     8  1
    7     2     9  1
    8     3     4  1
    9     3    10  1
   10     3    11  1
   11     4    12  1
   12     4    13  1
   13     4    14  1

@<TRIPOS>MOLECULE
MOL
   14   13    0    0    0




@<TRIPOS>ATOM
   1   C1        2.6690    1.0520   -1.8840   c3 0 -0.06  0.0000
   2   C2        1.2420    0.8100   -1.4650   c3 0 -0.05  0.0000
   3   C3        1.1660    0.0560   -0.1540   c3 0 -0.05  0.0000
   4   C4       -0.2610   -0.1870    0.2650   c3 0 -0.06  0.0000
   5   H1        2.8992    2.1454   -1.8844   hc 0 0.023  0.0000
   6   H2        3.3769    0.5454   -1.1850   hc 0 0.023  0.0000
   7   H3        2.8439    0.6542   -2.9133   hc 0 0.023  0.0000
   8   H4        0.7070    1.7910   -1.3620   hc 0 0.026  0.0000
   9   H5        0.7090    0.2270   -2.2620   hc 0 0.026  0.0000
  10   H6        1.7010   -0.9250   -0.2580   hc 0 0.026  0.0000
  11   H7        1.6990    0.6390    0.6420   hc 0 0.026  0.0000
  12   H8       -0.2920   -0.7430    1.2320   hc 0 0.023  0.0000
  13   H9       -0.8030    0.7810    0.3960   hc 0 0.023  0.0000
  14  H10       -0.8010   -0.7880   -0.5060   hc 0 0.023  0.0000
@<TRIPOS>BOND
    1     1     2  1
    2     1     5  1
    3     1     6  1
    4     1     7  1
    5     2     3  1
    6     2     8  1
    7     2     9  1
    8     3     4  1
    9     3    10  1
   10     3    11  1
   11     4    12  1
   12     4    13  1
   13     4    14  1

@<TRIPOS>MOLECULE
MOL
   14   13    0    0    0




@<TRIPOS>ATOM
   1   C1        2.6690    1.0520   -1.8840   c3 0 -0.06  0.0000
   2   C2        1.2420    0.8100   -1.4650   c3 0 -0.05  0.0000
   3   C3        1.1660    0.0560   -0.1540   c3 0 -0.05  0.0000
   4   C4       -0.2610   -0.1870    0.2650   c3 0 -0.06  0.0000
   5   H1        2.9045    2.1441   -1.8670   hc 0 0.023  0.0000
   6   H2        3.3764    0.5305   -1.1955   hc 0 0.023  0.0000
   7   H3        2.8392    0.6704   -2.9202   hc 0 0.023  0.0000
   8   H4        0.7070    1.7910   -1.3620   hc 0 0.026  0.0000
   9   H5        0.7090    0.2270   -2.2620   hc 0 0.026  0.0000
  10   H6        1.7010   -0.9250   -0.2580   hc 0 0.026  0.0000
  11   H7        1.6990    0.6390    0.6420   hc 0 0.026  0.0000
  12   H8       -0.2920   -0.7430    1.2320   hc 0 0.023  0.0000
  13   H9       -0.8030    0.7810    0.3960   hc 0 0.023  0.0000
  14  H10       -0.8010   -0.7880   -0.5060   hc 0 0.023  0.0000
@<TRIPOS>BOND
    1     1     2  1
    2     1     5  1
    3     1     6  1
    4     1     7  1
    5     2     3  1
    6     2     8  1
    7     2     9  1
    8     3     4  1
    9     3    10  1
   10     3    11  1
   11     4    12  1
   12     4    13  1
   13     4    14  1

@<TRIPOS>MOLECULE
MOL
   14   13    0    0    0




@<TRIPOS>ATOM
   1   C1        2.6690    1.0520   -1.8840   c3 0 -0.06  0.0000
   2   C2        1.2420    0.8100   -1.4650   c3 0 -0.05  0.0000
   3   C3        1.1660    0.0560   -0.1540   c3 0 -0.05  0.0000
   4   C4       -0.2610   -0.1870    0.2650   c3 0 -0.06  0.0000
   5   H1        2.9099    2.1425   -1.8496   hc 0 0.023  0.0000
   6   H2        3.3757    0.5158   -1.2062   hc 0 0.023  0.0000
   7   H3        2.8344    0.6868   -2.9268   hc 0 0.023  0.0000
   8   H4        0.7070    1.7910   -1.3620   hc 0 0.026  0.0000
   9   H5        0.7090    0.2270   -2.2620   hc 0 0.026  0.0000
  10   H6        1.7010   -0.9250   -0.2580   hc 0 0.026  0.0000
  11   H7        1.6990    0.6390    0.6420   hc 0 0.026  0.0000
  12   H8       -0.2920   -0.7430    1.2320   hc 0 0.023  0.0000
  13   H9       -0.8030    0.7810    0.3960   hc 0 0.023  0.0000
  14  H10       -0.8010   -0.7880   -0.5060   hc 0 0.023  0.0000
@<TRIPOS>BOND
    1     1     2  1
    2     1     5  1
    3     1     6  1
    4     1     7  1
    5     2     3  1
    6     2     8  1
    7     2     9  1
    8     3     4  1
    9     3    10  1
   10     3    11  1
   11     4    12  1
   12     4    13  1
   13     4    14  1

@<TRIPOS>MOLECULE
MOL
   14   13    0    0    0




@<TRIPOS>ATOM
   1   C1        2.6690    1.0520   -1.8840   c3 0 -0.06  0.0000
   2   C2        1.2420    0.8100   -1.4650   c3 0 -0.05  0.0000
   3   C3        1.1660    0.0560   -0.1540   c3 0 -0.05  0.0000
   4   C4       -0.2610   -0.1870    0.2650   c3 0 -0.06  0.0000
   5   H1        2.9153    2.1406   -1.8323   hc 0 0.023  0.0000
   6   H2        3.3750    0.5013   -1.2172   hc 0 0.023  0.0000
   7   H3        2.8298    0.7033   -2.9332   hc 0 0.023  0.0000
   8   H4        0.7070    1.7910   -1.3620   hc 0 0.026  0.0000
   9   H5        0.7090    0.2270   -2.2620   hc 0 0.026  0.0000
  10   H6        1.7010   -0.9250   -0.2580   hc 0 0.026  0.0000
  11   H7        1.6990    0.6390    0.6420   hc 0 0.026  0.0000
  12   H8       -0.2920   -0.7430    1.2320   hc 0 0.023  0.0000
  13   H9       -0.8030    0.7810    0.3960   hc 0 0.023  0.0000
  14  H10       -0.8010   -0.7880   -0.5060   hc 0 0.023  0.0000
@<TRIPOS>BOND
    1     1     2  1
    2     1     5  1
    3     1     6  1
    4     1     7  1
    5     2     3  1
    6     2     8  1
    7     2     9  1
    8     3     4  1
    9     3    10  1
   10     3    11  1
   11     4    12  1
   12     4    13  1
   13     4    14  1

@<TRIPOS>MOLECULE
MOL
   14   13    0    0    0




@<TRIPOS>ATOM
   1   C1        2.6690    1.0520   -1.8840   c3 0 -0.06  0.0000
   2   C2        1.2420    0.8100   -1.4650   c3 0 -0.05  0.0000
   3   C3        1.1660    0.0560   -0.1540   c3 0 -0.05  0.0000
   4   C4       -0.2610   -0.1870    0.2650   c3 0 -0.06  0.0000
   5   H1        2.9207    2.1384   -1.8150   hc 0 0.023  0.0000
   6   H2        3.3741    0.4869   -1.2284   hc 0 0.023  0.0000
   7   H3        2.8252    0.7199   -2.9393   hc 0 0.023  0.0000
   8   H4        0.7070    1.7910   -1.3620   hc 0 0.026  0.0000
   9   H5        0.7090    0.2270   -2.2620   hc 0 0.026  0.0000
  10   H6        1.7010   -0.9250   -0.2580   hc 0 0.026  0.0000
  11   H7        1.6990    0.6390    0.6420   hc 0 0.026  0.0000
  12   H8       -0.2920   -0.7430    1.2320   hc 0 0.023  0.0000
  13   H9       -0.8030    0.7810    0.3960   hc 0 0.023  0.0000
  14  H10       -0.8010   -0.7880   -0.5060   hc 0 0.023  0.0000
@<TRIPOS>BOND
    1     1     2  1
    2     1     5  1
    3     1     6  1
    4     1     7  1
    5     2     3  1
    6     2     8  1
    7     2     9  1
    8     3     4  1
    9     3    10  1
   10     3    11  1
   11     4    12  1
   12     4    13  1
   13     4    14  1

@<TRIPOS>MOLECULE
MOL
   14   13    0    0    0




@<TRIPOS>ATOM
   1   C1        2.6690    1.0520   -1.8840   c3 0 -0.06  0.0000
   2   C2        1.2420    0.8100   -1.4650   c3 0 -0.05  0.0000
   3   C3        1.1660    0.0560   -0.1540   c3 0 -0.05  0.0000
   4   C4       -0.2610   -0.1870    0.2650   c3 0 -0.06  0.0000
   5   H1        2.9262    2.1359   -1.7978   hc 0 0.023  0.0000
   6   H2        3.3731    0.4728   -1.2398   hc 0 0.023  0.0000
   7   H3        2.8206    0.7366   -2.9450   hc 0 0.023  0.0000
   8   H4        0.7070    1.7910   -1.3620   hc 0 0.026  0.0000
   9   H5        0.7090    0.2270   -2.2620   hc 0 0.026  0.0000
  10   H6        1.7010   -0.9250   -0.2580   hc 0 0.026  0.0000
  11   H7        1.6990    0.6390    0.6420   hc 0 0.026  0.0000
  12   H8       -0.2920   -0.7430    1.2320   hc 0 0.023  0.0000
  13   H9       -0.8030    0.7810    0.3960   hc 0 0.023  0.0000
  14  H10       -0.8010   -0.7880   -0.5060   hc 0 0.023  0.0000
@<TRIPOS>BOND
    1     1     2  1
    2     1     5  1
    3     1     6  1
    4     1     7  1
    5     2     3  1
    6     2     8  1
    7     2     9  1
    8     3     4  1
    9     3    10  1
   10     3    11  1
   11     4    12  1
   12     4    13  1
   13     4    14  1

@<TRIPOS>MOLECULE
MOL
   14   13    0    0    0




@<TRIPOS>ATOM
   1   C1        2.6690    1.0520   -1.8840   c3 0 -0.06  0.0000
   2   C2        1.2420    0.8100   -1.4650   c3 0 -0.05  0.0000
   3   C3        1.1660    0.0560   -0.1540   c3 0 -0.05  0.0000
   4   C4       -0.2610   -0.1870    0.2650   c3 0 -0.06  0.0000
   5   H1        2.9317    2.1331   -1.7807   hc 0 0.023  0.0000
   6   H2        3.3721    0.4588   -1.2515   hc 0 0.023  0.0000
   7   H3        2.8162    0.7535   -2.9505   hc 0 0.023  0.0000
   8   H4        0.7070    1.7910   -1.3620   hc 0 0.026  0.0000
   9   H5        0.7090    0.2270   -2.2620   hc 0 0.026  0.0000
  10   H6        1.7010   -0.9250   -0.2580   hc 0 0.026  0.0000
  11   H7        1.6990    0.6390    0.6420   hc 0 0.026  0.0000
  12   H8       -0.2920   -0.7430    1.2320   hc 0 0.023  0.0000
  13   H9       -0.8030    0.7810    0.3960   hc 0 0.023  0.0000
  14  H10       -0.8010   -0.7880   -0.5060   hc 0 0.023  0.0000
@<TRIPOS>BOND
    1     1     2  1
    2     1     5  1
    3     1     6  1
    4     1     7  1
    5     2     3  1
    6     2     8  1
    7     2     9  1
    8     3     4  1
    9     3    10  1
   10     3    11  1
   11     4    12  1
   12     4    13  1
   13     4    14  1

@<TRIPOS>MOLECULE
MOL
   14   13    0    0    0




@<TRIPOS>ATOM
   1   C1        2.6690    1.0520   -1.8840   c3 0 -0.06  0.0000
   2   C2        1.2420    0.8100   -1.4650   c3 0 -0.05  0.0000
   3   C3        1.1660    0.0560   -0.1540   c3 0 -0.05  0.0000
   4   C4       -0.2610   -0.1870    0.2650   c3 0 -0.06  0.0000
   5   H1        2.9373    2.1299   -1.7636   hc 0 0.023  0.0000
   6   H2        3.3709    0.4450   -1.2634   hc 0 0.023  0.0000
   7   H3        2.8117    0.7705   -2.9557   hc 0 0.023  0.0000
   8   H4        0.7070    1.7910   -1.3620   hc 0 0.026  0.0000
   9   H5        0.7090    0.2270   -2.2620   hc 0 0.026  0.0000
  10   H6        1.7010   -0.9250   -0.2580   hc 0 0.026  0.0000
  11   H7        1.6990    0.6390    0.6420   hc 0 0.026  0.0000
  12   H8       -0.2920   -0.7430    1.2320   hc 0 0.023  0.0000
  13   H9       -0.8030    0.7810    0.3960   hc 0 0.023  0.0000
  14  H10       -0.8010   -0.7880   -0.5060   hc 0 0.023  0.0000
@<TRIPOS>BOND
    1     1     2  1
    2     1     5  1
    3     1     6  1
    4     1     7  1
    5     2     3  1
    6     2     8  1
    7     2     9  1
    8     3     4  1
    9     3    10  1
   10     3    11  1
   11     4    12  1
   12     4    13  1
   13     4    14  1

@<TRIPOS>MOLECULE
MOL
   14   13    0    0    0




@<TRIPOS>ATOM
   1   C1        2.6690    1.0520   -1.8840   c3 0 -0.06  0.0000
   2   C2        1.2420    0.8100   -1.4650   c3 0 -0.05  0.0000
   3   C3        1.1660    0.0560   -0.1540   c3 0 -0.05  0.0000
   4   C4       -0.2610   -0.1870    0.2650   c3 0 -0.06  0.0000
   5   H1        2.9429    2.1265   -1.7465   hc 0 0.023  0.0000
   6   H2        3.3697    0.4315   -1.2755   hc 0 0.023  0.0000
   7   H3        2.8074    0.7875   -2.9606   hc 0 0.023  0.0000
   8   H4        0.7070    1.7910   -1.3620   hc 0 0.026  0.0000
   9   H5        0.7090    0.2270   -2.2620   hc 0 0.026  0.0000
  10   H6        1.7010   -0.9250   -0.2580   hc 0 0.026  0.0000
  11   H7        1.6990    0.6390    0.6420   hc 0 0.026  0.0000
  12   H8       -0.2920   -0.7430    1.2320   hc 0 0.023  0.0000
  13   H9       -0.8030    0.7810    0.3960   hc 0 0.023  0.0000
  14  H10       -0.8010   -0.7880   -0.5060   hc 0 0.023  0.0000
@<TRIPOS>BOND
    1     1     2  1
    2     1     5  1
    3     1     6  1
    4     1     7  1
    5     2     3  1
    6     2     8  1
    7     2     9  1
    8     3     4  1
    9     3    10  1
   10     3    11  1
   11     4    12  1
   12     4    13  1
   13     4    14  1

@<TRIPOS>MOLECULE
MOL
   14   13    0    0    0




@<TRIPOS>ATOM
   1   C1        2.6690    1.0520   -1.8840   c3 0 -0.06  0.0000
   2   C2        1.2420    0.8100   -1.4650   c3 0 -0.05  0.0000
   3   C3        1.1660    0.0560   -0.1540   c3 0 -0.05  0.0000
   4   C4       -0.2610   -0.1870    0.2650   c3 0 -0.06  0.0000
   5   H1        2.9485    2.1227   -1.7296   hc 0 0.023  0.0000
   6   H2        3.3683    0.4181   -1.2878   hc 0 0.023  0.0000
   7   H3        2.8031    0.8047   -2.9652   hc 0 0.023  0.0000
   8   H4        0.7070    1.7910   -1.3620   hc 0 0.026  0.0000
   9   H5        0.7090    0.2270   -2.2620   hc 0 0.026  0.0000
  10   H6        1.7010   -0.9250   -0.2580   hc 0 0.026  0.0000
  11   H7        1.6990    0.6390    0.6420   hc 0 0.026  0.0000
  12   H8       -0.2920   -0.7430    1.2320   hc 0 0.023  0.0000
  13   H9       -0.8030    0.7810    0.3960   hc 0 0.023  0.0000
  14  H10       -0.8010   -0.7880   -0.5060   hc 0 0.023  0.0000
@<TRIPOS>BOND
    1     1     2  1
    2     1     5  1
    3     1     6  1
    4     1     7  1
    5     2     3  1
    6     2     8  1
    7     2     9  1
    8     3     4  1
    9     3    10  1
   10     3    11  1
   11     4    12  1
   12     4    13  1
   13     4    14  1

@<TRIPOS>MOLECULE
MOL
   14   13    0    0    0




@<TRIPOS>ATOM
   1   C1        2.6690    1.0520   -1.8840   c3 0 -0.06  0.0000
   2   C2        1.2420    0.8100   -1.4650   c3 0 -0.05  0.0000
   3   C3        1.1660    0.0560   -0.1540   c3 0 -0.05  0.0000
   4   C4       -0.2610   -0.1870    0.2650   c3 0 -0.06  0.0000
   5   H1        2.9541    2.1187   -1.7127   hc 0 0.023  0.0000
   6   H2        3.3669    0.4050   -1.3004   hc 0 0.023  0.0000
   7   H3        2.7990    0.8220   -2.9696   hc 0 0.023  0.0000
   8   H4        0.7070    1.7910   -1.3620   hc 0 0.026  0.0000
   9   H5        0.7090    0.2270   -2.2620   hc 0 0.026  0.0000
  10   H6        1.7010   -0.9250   -0.2580   hc 0 0.026  0.0000
  11   H7        1.6990    0.6390    0.6420   hc 0 0.026  0.0000
  12   H8       -0.2920   -0.7430    1.2320   hc 0 0.023  0.0000
  13   H9       -0.8030    0.7810    0.3960   hc 0 0.023  0.0000
  14  H10       -0.8010   -0.7880   -0.5060   hc 0 0.023  0.0000
@<TRIPOS>BOND
    1     1     2  1
    2     1     5  1
    3     1     6  1
    4     1     7  1
    5     2     3  1
    6     2     8  1
    7     2     9  1
    8     3     4  1
    9     3    10  1
   10     3    11  1
   11     4    12  1
   12     4    13  1
   13     4    14  1

@<TRIPOS>MOLECULE
MOL
   14   13    0    0    0




@<TRIPOS>ATOM
   1   C1        2.6690    1.0520   -1.8840   c3 0 -0.06  0.0000
   2   C2        1.2420    0.8100   -1.4650   c3 0 -0.05  0.0000
   3   C3        1.1660    0.0560   -0.1540   c3 0 -0.05  0.0000
   4   C4       -0.2610   -0.1870    0.2650   c3 0 -0.06  0.0000
   5   H1        2.9598    2.1143   -1.6959   hc 0 0.023  0.0000
   6   H2        3.3653    0.3920   -1.3131   hc 0 0.023  0.0000
   7   H3        2.7948    0.8393   -2.9736   hc 0 0.023  0.0000
   8   H4        0.7070    1.7910   -1.3620   hc 0 0.026  0.0000
   9   H5        0.7090    0.2270   -2.2620   hc 0 0.026  0.0000
  10   H6        1.7010   -0.9250   -0.2580   hc 0 0.026  0.0000
  11   H7        1.6990    0.6390    0.6420   hc 0 0.026  0.0000
  12   H8       -0.2920   -0.7430    1.2320   hc 0 0.023  0.0000
  13   H9       -0.8030    0.7810    0.3960   hc 0 0.023  0.0000
  14  H10       -0.8010   -0.7880   -0.5060   hc 0 0.023  0.0000
@<TRIPOS>BOND
    1     1     2  1
    2     1     5  1
    3     1     6  1
    4     1     7  1
    5     2     3  1
    6     2     8  1
    7     2     9  1
    8     3     4  1
    9     3    10  1
   10     3    11  1
   11     4    12  1
   12     4    13  1
   13     4    14  1

@<TRIPOS>MOLECULE
MOL
   14   13    0    0    0




@<TRIPOS>ATOM
   1   C1        2.6690    1.0520   -1.8840   c3 0 -0.06  0.0000
   2   C2        1.2420    0.8100   -1.4650   c3 0 -0.05  0.0000
   3   C3        1.1660    0.0560   -0.1540   c3 0 -0.05  0.0000
   4   C4       -0.2610   -0.1870    0.2650   c3 0 -0.06  0.0000
   5   H1        2.9655    2.1096   -1.6792   hc 0 0.023  0.0000
   6   H2        3.3637    0.3793   -1.3261   hc 0 0.023  0.0000
   7   H3        2.7908    0.8568   -2.9773   hc 0 0.023  0.0000
   8   H4        0.7070    1.7910   -1.3620   hc 0 0.026  0.0000
   9   H5        0.7090    0.2270   -2.2620   hc 0 0.026  0.0000
  10   H6        1.7010   -0.9250   -0.2580   hc 0 0.026  0.0000
  11   H7        1.6990    0.6390    0.6420   hc 0 0.026  0.0000
  12   H8       -0.2920   -0.7430    1.2320   hc 0 0.023  0.0000
  13   H9       -0.8030    0.7810    0.3960   hc 0 0.023  0.0000
  14  H10       -0.8010   -0.7880   -0.5060   hc 0 0.023  0.0000
@<TRIPOS>BOND
    1     1     2  1
    2     1     5  1
    3     1     6  1
    4     1     7  1
    5     2     3  1
    6     2     8  1
    7     2     9  1
    8     3     4  1
    9     3    10  1
   10     3    11  1
   11     4    12  1
   12     4    13  1
   13     4    14  1

@<TRIPOS>MOLECULE
MOL
   14   13    0    0    0




@<TRIPOS>ATOM
   1   C1        2.6690    1.0520   -1.8840   c3 0 -0.06  0.0000
   2   C2        1.2420    0.8100   -1.4650   c3 0 -0.05  0.0000
   3   C3        1.1660    0.0560   -0.1540   c3 0 -0.05  0.0000
   4   C4       -0.2610   -0.1870    0.2650   c3 0 -0.06  0.0000
   5   H1        2.9712    2.1047   -1.6626   hc 0 0.023  0.0000
   6   H2        3.3619    0.3669   -1.3393   hc 0 0.023  0.0000
   7   H3        2.7868    0.8743   -2.9807   hc 0 0.023  0.0000
   8   H4        0.7070    1.7910   -1.3620   hc 0 0.026  0.0000
   9   H5        0.7090    0.2270   -2.2620   hc 0 0.026  0.0000
  10   H6        1.7010   -0.9250   -0.2580   hc 0 0.026  0.0000
  11   H7        1.6990    0.6390    0.6420   hc 0 0.026  0.0000
  12   H8       -0.2920   -0.7430    1.2320   hc 0 0.023  0.0000
  13   H9       -0.8030    0.7810    0.3960   hc 0 0.023  0.0000
  14  H10       -0.8010   -0.7880   -0.5060   hc 0 0.023  0.0000
@<TRIPOS>BOND
    1     1     2  1
    2     1     5  1
    3     1     6  1
    4     1     7  1
    5     2     3  1
    6     2     8  1
    7     2     9  1
    8     3     4  1
    9     3    10  1
   10     3    11  1
   11     4    12  1
   12     4    13  1
   13     4    14  1

@<TRIPOS>MOLECULE
MOL
   14   13    0    0    0




@<TRIPOS>ATOM
   1   C1        2.6690    1.0520   -1.8840   c3 0 -0.06  0.0000
   2   C2        1.2420    0.8100   -1.4650   c3 0 -0.05  0.0000
   3   C3        1.1660    0.0560   -0.1540   c3 0 -0.05  0.0000
   4   C4       -0.2610   -0.1870    0.2650   c3 0 -0.06  0.0000
   5   H1        2.9769    2.0994   -1.6461   hc 0 0.023  0.0000
   6   H2        3.3601    0.3546   -1.3526   hc 0 0.023  0.0000
   7   H3        2.7829    0.8919   -2.9838   hc 0 0.023  0.0000
   8   H4        0.7070    1.7910   -1.3620   hc 0 0.026  0.0000
   9   H5        0.7090    0.2270   -2.2620   hc 0 0.026  0.0000
  10   H6        1.7010   -0.9250   -0.2580   hc 0 0.026  0.0000
  11   H7        1.6990    0.6390    0.6420   hc 0 0.026  0.0000
  12   H8       -0.2920   -0.7430    1.2320   hc 0 0.023  0.0000
  13   H9       -0.8030    0.7810    0.3960   hc 0 0.023  0.0000
  14  H10       -0.8010   -0.7880   -0.5060   hc 0 0.023  0.0000
@<TRIPOS>BOND
    1     1     2  1
    2     1     5  1
    3     1     6  1
    4     1     7  1
    5     2     3  1
    6     2     8  1
    7     2     9  1
    8     3     4  1
    9     3    10  1
   10     3    11  1
   11     4    12  1
   12     4    13  1
   13     4    14  1

@<TRIPOS>MOLECULE
MOL
   14   13    0    0    0




@<TRIPOS>ATOM
   1   C1        2.6690    1.0520   -1.8840   c3 0 -0.06  0.0000
   2   C2        1.2420    0.8100   -1.4650   c3 0 -0.05  0.0000
   3   C3        1.1660    0.0560   -0.1540   c3 0 -0.05  0.0000
   4   C4       -0.2610   -0.1870    0.2650   c3 0 -0.06  0.0000
   5   H1        2.9827    2.0938   -1.6297   hc 0 0.023  0.0000
   6   H2        3.3581    0.3426   -1.3662   hc 0 0.023  0.0000
   7   H3        2.7791    0.9095   -2.9866   hc 0 0.023  0.0000
   8   H4        0.7070    1.7910   -1.3620   hc 0 0.026  0.0000
   9   H5        0.7090    0.2270   -2.2620   hc 0 0.026  0.0000
  10   H6        1.7010   -0.9250   -0.2580   hc 0 0.026  0.0000
  11   H7        1.6990    0.6390    0.6420   hc 0 0.026  0.0000
  12   H8       -0.2920   -0.7430    1.2320   hc 0 0.023  0.0000
  13   H9       -0.8030    0.7810    0.3960   hc 0 0.023  0.0000
  14  H10       -0.8010   -0.7880   -0.5060   hc 0 0.023  0.0000
@<TRIPOS>BOND
    1     1     2  1
    2     1     5  1
    3     1     6  1
    4     1     7  1
    5     2     3  1
    6     2     8  1
    7     2     9  1
    8     3     4  1
    9     3    10  1
   10     3    11  1
   11     4    12  1
   12     4    13  1
   13     4    14  1

@<TRIPOS>MOLECULE
MOL
   14   13    0    0    0




@<TRIPOS>ATOM
   1   C1        2.6690    1.0520   -1.8840   c3 0 -0.06  0.0000
   2   C2        1.2420    0.8100   -1.4650   c3 0 -0.05  0.0000
   3   C3        1.1660    0.0560   -0.1540   c3 0 -0.05  0.0000
   4   C4       -0.2610   -0.1870    0.2650   c3 0 -0.06  0.0000
   5   H1        2.9885    2.0879   -1.6134   hc 0 0.023  0.0000
   6   H2        3.3561    0.3308   -1.3799   hc 0 0.023  0.0000
   7   H3        2.7753    0.9273   -2.9892   hc 0 0.023  0.0000
   8   H4        0.7070    1.7910   -1.3620   hc 0 0.026  0.0000
   9   H5        0.7090    0.2270   -2.2620   hc 0 0.026  0.0000
  10   H6        1.7010   -0.9250   -0.2580   hc 0 0.026  0.0000
  11   H7        1.6990    0.6390    0.6420   hc 0 0.026  0.0000
  12   H8       -0.2920   -0.7430    1.2320   hc 0 0.023  0.0000
  13   H9       -0.8030    0.7810    0.3960   hc 0 0.023  0.0000
  14  H10       -0.8010   -0.7880   -0.5060   hc 0 0.023  0.0000
@<TRIPOS>BOND
    1     1     2  1
    2     1     5  1
    3     1     6  1
    4     1     7  1
    5     2     3  1
    6     2     8  1
    7     2     9  1
    8     3     4  1
    9     3    10  1
   10     3    11  1
   11     4    12  1
   12     4    13  1
   13     4    14  1

@<TRIPOS>MOLECULE
MOL
   14   13    0    0    0




@<TRIPOS>ATOM
   1   C1        2.6690    1.0520   -1.8840   c3 0 -0.06  0.0000
   2   C2        1.2420    0.8100   -1.4650   c3 0 -0.05  0.0000
   3   C3        1.1660    0.0560   -0.1540   c3 0 -0.05  0.0000
   4   C4       -0.2610   -0.1870    0.2650   c3 0 -0.06  0.0000
   5   H1        2.9943    2.0818   -1.5973   hc 0 0.023  0.0000
   6   H2        3.3539    0.3193   -1.3939   hc 0 0.023  0.0000
   7   H3        2.7717    0.9450   -2.9914   hc 0 0.023  0.0000
   8   H4        0.7070    1.7910   -1.3620   hc 0 0.026  0.0000
   9   H5        0.7090    0.2270   -2.2620   hc 0 0.026  0.0000
  10   H6        1.7010   -0.9250   -0.2580   hc 0 0.026  0.0000
  11   H7        1.6990    0.6390    0.6420   hc 0 0.026  0.0000
  12   H8       -0.2920   -0.7430    1.2320   hc 0 0.023  0.0000
  13   H9       -0.8030    0.7810    0.3960   hc 0 0.023  0.0000
  14  H10       -0.8010   -0.7880   -0.5060   hc 0 0.023  0.0000
@<TRIPOS>BOND
    1     1     2  1
    2     1     5  1
    3     1     6  1
    4     1     7  1
    5     2     3  1
    6     2     8  1
    7     2     9  1
    8     3     4  1
    9     3    10  1
   10     3    11  1
   11     4    12  1
   12     4    13  1
   13     4    14  1

@<TRIPOS>MOLECULE
MOL
   14   13    0    0    0




@<TRIPOS>ATOM
   1   C1        2.6690    1.0520   -1.8840   c3 0 -0.06  0.0000
   2   C2        1.2420    0.8100   -1.4650   c3 0 -0.05  0.0000
   3   C3        1.1660    0.0560   -0.1540   c3 0 -0.05  0.0000
   4   C4       -0.2610   -0.1870    0.2650   c3 0 -0.06  0.0000
   5   H1        3.0001    2.0753   -1.5812   hc 0 0.023  0.0000
   6   H2        3.3517    0.3080   -1.4080   hc 0 0.023  0.0000
   7   H3        2.7681    0.9629   -2.9933   hc 0 0.023  0.0000
   8   H4        0.7070    1.7910   -1.3620   hc 0 0.026  0.0000
   9   H5        0.7090    0.2270   -2.2620   hc 0 0.026  0.0000
  10   H6        1.7010   -0.9250   -0.2580   hc 0 0.026  0.0000
  11   H7        1.6990    0.6390    0.6420   hc 0 0.026  0.0000
  12   H8       -0.2920   -0.7430    1.2320   hc 0 0.023  0.0000
  13   H9       -0.8030    0.7810    0.3960   hc 0 0.023  0.0000
  14  H10       -0.8010   -0.7880   -0.5060   hc 0 0.023  0.0000
@<TRIPOS>BOND
    1     1     2  1
    2     1     5  1
    3     1     6  1
    4     1     7  1
    5     2     3  1
    6     2     8  1
    7     2     9  1
    8     3     4  1
    9     3    10  1
   10     3    11  1
   11     4    12  1
   12     4    13  1
   13     4    14  1

@<TRIPOS>MOLECULE
MOL
   14   13    0    0    0




@<TRIPOS>ATOM
   1   C1        2.6690    1.0520   -1.8840   c3 0 -0.06  0.0000
   2   C2        1.2420    0.8100   -1.4650   c3 0 -0.05  0.0000
   3   C3        1.1660    0.0560   -0.1540   c3 0 -0.05  0.0000
   4   C4       -0.2610   -0.1870    0.2650   c3 0 -0.06  0.0000
   5   H1        3.0059    2.0685   -1.5653   hc 0 0.023  0.0000
   6   H2        3.3494    0.2969   -1.4223   hc 0 0.023  0.0000
   7   H3        2.7646    0.9807   -2.9949   hc 0 0.023  0.0000
   8   H4        0.7070    1.7910   -1.3620   hc 0 0.026  0.0000
   9   H5        0.7090    0.2270   -2.2620   hc 0 0.026  0.0000
  10   H6        1.7010   -0.9250   -0.2580   hc 0 0.026  0.0000
  11   H7        1.6990    0.6390    0.6420   hc 0 0.026  0.0000
  12   H8       -0.2920   -0.7430    1.2320   hc 0 0.023  0.0000
  13   H9       -0.8030    0.7810    0.3960   hc 0 0.023  0.0000
  14  H10       -0.8010   -0.7880   -0.5060   hc 0 0.023  0.0000
@<TRIPOS>BOND
    1     1     2  1
    2     1     5  1
    3     1     6  1
    4     1     7  1
    5     2     3  1
    6     2     8  1
    7     2     9  1
    8     3     4  1
    9     3    10  1
   10     3    11  1
   11     4    12  1
   12     4    13  1
   13     4    14  1

@<TRIPOS>MOLECULE
MOL
   14   13    0    0    0




@<TRIPOS>ATOM
   1   C1        2.6690    1.0520   -1.8840   c3 0 -0.06  0.0000
   2   C2        1.2420    0.8100   -1.4650   c3 0 -0.05  0.0000
   3   C3        1.1660    0.0560   -0.1540   c3 0 -0.05  0.0000
   4   C4       -0.2610   -0.1870    0.2650   c3 0 -0.06  0.0000
   5   H1        3.0117    2.0615   -1.5495   hc 0 0.023  0.0000
   6   H2        3.3470    0.2861   -1.4368   hc 0 0.023  0.0000
   7   H3        2.7612    0.9987   -2.9962   hc 0 0.023  0.0000
   8   H4        0.7070    1.7910   -1.3620   hc 0 0.026  0.0000
   9   H5        0.7090    0.2270   -2.2620   hc 0 0.026  0.0000
  10   H6        1.7010   -0.9250   -0.2580   hc 0 0.026  0.0000
  11   H7        1.6990    0.6390    0.6420   hc 0 0.026  0.0000
  12   H8       -0.2920   -0.7430    1.2320   hc 0 0.023  0.0000
  13   H9       -0.8030    0.7810    0.3960   hc 0 0.023  0.0000
  14  H10       -0.8010   -0.7880   -0.5060   hc 0 0.023  0.0000
@<TRIPOS>BOND
    1     1     2  1
    2     1     5  1
    3     1     6  1
    4     1     7  1
    5     2     3  1
    6     2     8  1
    7     2     9  1
    8     3     4  1
    9     3    10  1
   10     3    11  1
   11     4    12  1
   12     4    13  1
   13     4    14  1

@<TRIPOS>MOLECULE
MOL
   14   13    0    0    0




@<TRIPOS>ATOM
   1   C1        2.6690    1.0520   -1.8840   c3 0 -0.06  0.0000
   2   C2        1.2420    0.8100   -1.4650   c3 0 -0.05  0.0000
   3   C3        1.1660    0.0560   -0.1540   c3 0 -0.05  0.0000
   4   C4       -0.2610   -0.1870    0.2650   c3 0 -0.06  0.0000
   5   H1        3.0176    2.0542   -1.5338   hc 0 0.023  0.0000
   6   H2        3.3445    0.2755   -1.4514   hc 0 0.023  0.0000
   7   H3        2.7578    1.0166   -2.9971   hc 0 0.023  0.0000
   8   H4        0.7070    1.7910   -1.3620   hc 0 0.026  0.0000
   9   H5        0.7090    0.2270   -2.2620   hc 0 0.026  0.0000
  10   H6        1.7010   -0.9250   -0.2580   hc 0 0.026  0.0000
  11   H7        1.6990    0.6390    0.6420   hc 0 0.026  0.0000
  12   H8       -0.2920   -0.7430    1.2320   hc 0 0.023  0.0000
  13   H9       -0.8030    0.7810    0.3960   hc 0 0.023  0.0000
  14  H10       -0.8010   -0.7880   -0.5060   hc 0 0.023  0.0000
@<TRIPOS>BOND
    1     1     2  1
    2     1     5  1
    3     1     6  1
    4     1     7  1
    5     2     3  1
    6     2     8  1
    7     2     9  1
    8     3     4  1
    9     3    10  1
   10     3    11  1
   11     4    12  1
   12     4    13  1
   13     4    14  1

@<TRIPOS>MOLECULE
MOL
   14   13    0    0    0




@<TRIPOS>ATOM
   1   C1        2.6690    1.0520   -1.8840   c3 0 -0.06  0.0000
   2   C2        1.2420    0.8100   -1.4650   c3 0 -0.05  0.0000
   3   C3        1.1660    0.0560   -0.1540   c3 0 -0.05  0.0000
   4   C4       -0.2610   -0.1870    0.2650   c3 0 -0.06  0.0000
   5   H1        3.0234    2.0465   -1.5183   hc 0 0.023  0.0000
   6   H2        3.3419    0.2652   -1.4662   hc 0 0.023  0.0000
   7   H3        2.7546    1.0346   -2.9978   hc 0 0.023  0.0000
   8   H4        0.7070    1.7910   -1.3620   hc 0 0.026  0.0000
   9   H5        0.7090    0.2270   -2.2620   hc 0 0.026  0.0000
  10   H6        1.7010   -0.9250   -0.2580   hc 0 0.026  0.0000
  11   H7        1.6990    0.6390    0.6420   hc 0 0.026  0.0000
  12   H8       -0.2920   -0.7430    1.2320   hc 0 0.023  0.0000
  13   H9       -0.8030    0.7810    0.3960   hc 0 0.023  0.0000
  14  H10       -0.8010   -0.7880   -0.5060   hc 0 0.023  0.0000
@<TRIPOS>BOND
    1     1     2  1
    2     1     5  1
    3     1     6  1
    4     1     7  1
    5     2     3  1
    6     2     8  1
    7     2     9  1
    8     3     4  1
    9     3    10  1
   10     3    11  1
   11     4    12  1
   12     4    13  1
   13     4    14  1

@<TRIPOS>MOLECULE
MOL
   14   13    0    0    0




@<TRIPOS>ATOM
   1   C1        2.6690    1.0520   -1.8840   c3 0 -0.06  0.0000
   2   C2        1.2420    0.8100   -1.4650   c3 0 -0.05  0.0000
   3   C3        1.1660    0.0560   -0.1540   c3 0 -0.05  0.0000
   4   C4       -0.2610   -0.1870    0.2650   c3 0 -0.06  0.0000
   5   H1        3.0293    2.0386   -1.5029   hc 0 0.023  0.0000
   6   H2        3.3392    0.2552   -1.4812   hc 0 0.023  0.0000
   7   H3        2.7514    1.0526   -2.9982   hc 0 0.023  0.0000
   8   H4        0.7070    1.7910   -1.3620   hc 0 0.026  0.0000
   9   H5        0.7090    0.2270   -2.2620   hc 0 0.026  0.0000
  10   H6        1.7010   -0.9250   -0.2580   hc 0 0.026  0.0000
  11   H7        1.6990    0.6390    0.6420   hc 0 0.026  0.0000
  12   H8       -0.2920   -0.7430    1.2320   hc 0 0.023  0.0000
  13   H9       -0.8030    0.7810    0.3960   hc 0 0.023  0.0000
  14  H10       -0.8010   -0.7880   -0.5060   hc 0 0.023  0.0000
@<TRIPOS>BOND
    1     1     2  1
    2     1     5  1
    3     1     6  1
    4     1     7  1
    5     2     3  1
    6     2     8  1
    7     2     9  1
    8     3     4  1
    9     3    10  1
   10     3    11  1
   11     4    12  1
   12     4    13  1
   13     4    14  1

@<TRIPOS>MOLECULE
MOL
   14   13    0    0    0




@<TRIPOS>ATOM
   1   C1        2.6690    1.0520   -1.8840   c3 0 -0.06  0.0000
   2   C2        1.2420    0.8100   -1.4650   c3 0 -0.05  0.0000
   3   C3        1.1660    0.0560   -0.1540   c3 0 -0.05  0.0000
   4   C4       -0.2610   -0.1870    0.2650   c3 0 -0.06  0.0000
   5   H1        3.0351    2.0305   -1.4877   hc 0 0.023  0.0000
   6   H2        3.3364    0.2454   -1.4963   hc 0 0.023  0.0000
   7   H3        2.7484    1.0706   -2.9983   hc 0 0.023  0.0000
   8   H4        0.7070    1.7910   -1.3620   hc 0 0.026  0.0000
   9   H5        0.7090    0.2270   -2.2620   hc 0 0.026  0.0000
  10   H6        1.7010   -0.9250   -0.2580   hc 0 0.026  0.0000
  11   H7        1.6990    0.6390    0.6420   hc 0 0.026  0.0000
  12   H8       -0.2920   -0.7430    1.2320   hc 0 0.023  0.0000
  13   H9       -0.8030    0.7810    0.3960   hc 0 0.023  0.0000
  14  H10       -0.8010   -0.7880   -0.5060   hc 0 0.023  0.0000
@<TRIPOS>BOND
    1     1     2  1
    2     1     5  1
    3     1     6  1
    4     1     7  1
    5     2     3  1
    6     2     8  1
    7     2     9  1
    8     3     4  1
    9     3    10  1
   10     3    11  1
   11     4    12  1
   12     4    13  1
   13     4    14  1

@<TRIPOS>MOLECULE
MOL
   14   13    0    0    0




@<TRIPOS>ATOM
   1   C1        2.6690    1.0520   -1.8840   c3 0 -0.06  0.0000
   2   C2        1.2420    0.8100   -1.4650   c3 0 -0.05  0.0000
   3   C3        1.1660    0.0560   -0.1540   c3 0 -0.05  0.0000
   4   C4       -0.2610   -0.1870    0.2650   c3 0 -0.06  0.0000
   5   H1        3.0410    2.0220   -1.4727   hc 0 0.023  0.0000
   6   H2        3.3335    0.2359   -1.5116   hc 0 0.023  0.0000
   7   H3        2.7454    1.0887   -2.9980   hc 0 0.023  0.0000
   8   H4        0.7070    1.7910   -1.3620   hc 0 0.026  0.0000
   9   H5        0.7090    0.2270   -2.2620   hc 0 0.026  0.0000
  10   H6        1.7010   -0.9250   -0.2580   hc 0 0.026  0.0000
  11   H7        1.6990    0.6390    0.6420   hc 0 0.026  0.0000
  12   H8       -0.2920   -0.7430    1.2320   hc 0 0.023  0.0000
  13   H9       -0.8030    0.7810    0.3960   hc 0 0.023  0.0000
  14  H10       -0.8010   -0.7880   -0.5060   hc 0 0.023  0.0000
@<TRIPOS>BOND
    1     1     2  1
    2     1     5  1
    3     1     6  1
    4     1     7  1
    5     2     3  1
    6     2     8  1
    7     2     9  1
    8     3     4  1
    9     3    10  1
   10     3    11  1
   11     4    12  1
   12     4    13  1
   13     4    14  1

@<TRIPOS>MOLECULE
MOL
   14   13    0    0    0




@<TRIPOS>ATOM
   1   C1        2.6690    1.0520   -1.8840   c3 0 -0.06  0.0000
   2   C2        1.2420    0.8100   -1.4650   c3 0 -0.05  0.0000
   3   C3        1.1660    0.0560   -0.1540   c3 0 -0.05  0.0000
   4   C4       -0.2610   -0.1870    0.2650   c3 0 -0.06  0.0000
   5   H1        3.0469    2.0132   -1.4577   hc 0 0.023  0.0000
   6   H2        3.3306    0.2267   -1.5270   hc 0 0.023  0.0000
   7   H3        2.7425    1.1067   -2.9975   hc 0 0.023  0.0000
   8   H4        0.7070    1.7910   -1.3620   hc 0 0.026  0.0000
   9   H5        0.7090    0.2270   -2.2620   hc 0 0.026  0.0000
  10   H6        1.7010   -0.9250   -0.2580   hc 0 0.026  0.0000
  11   H7        1.6990    0.6390    0.6420   hc 0 0.026  0.0000
  12   H8       -0.2920   -0.7430    1.2320   hc 0 0.023  0.0000
  13   H9       -0.8030    0.7810    0.3960   hc 0 0.023  0.0000
  14  H10       -0.8010   -0.7880   -0.5060   hc 0 0.023  0.0000
@<TRIPOS>BOND
    1     1     2  1
    2     1     5  1
    3     1     6  1
    4     1     7  1
    5     2     3  1
    6     2     8  1
    7     2     9  1
    8     3     4  1
    9     3    10  1
   10     3    11  1
   11     4    12  1
   12     4    13  1
   13     4    14  1

@<TRIPOS>MOLECULE
MOL
   14   13    0    0    0




@<TRIPOS>ATOM
   1   C1        2.6690    1.0520   -1.8840   c3 0 -0.06  0.0000
   2   C2        1.2420    0.8100   -1.4650   c3 0 -0.05  0.0000
   3   C3        1.1660    0.0560   -0.1540   c3 0 -0.05  0.0000
   4   C4       -0.2610   -0.1870    0.2650   c3 0 -0.06  0.0000
   5   H1        3.0527    2.0042   -1.4430   hc 0 0.023  0.0000
   6   H2        3.3275    0.2177   -1.5426   hc 0 0.023  0.0000
   7   H3        2.7397    1.1248   -2.9966   hc 0 0.023  0.0000
   8   H4        0.7070    1.7910   -1.3620   hc 0 0.026  0.0000
   9   H5        0.7090    0.2270   -2.2620   hc 0 0.026  0.0000
  10   H6        1.7010   -0.9250   -0.2580   hc 0 0.026  0.0000
  11   H7        1.6990    0.6390    0.6420   hc 0 0.026  0.0000
  12   H8       -0.2920   -0.7430    1.2320   hc 0 0.023  0.0000
  13   H9       -0.8030    0.7810    0.3960   hc 0 0.023  0.0000
  14  H10       -0.8010   -0.7880   -0.5060   hc 0 0.023  0.0000
@<TRIPOS>BOND
    1     1     2  1
    2     1     5  1
    3     1     6  1
    4     1     7  1
    5     2     3  1
    6     2     8  1
    7     2     9  1
    8     3     4  1
    9     3    10  1
   10     3    11  1
   11     4    12  1
   12     4    13  1
   13     4    14  1

@<TRIPOS>MOLECULE
MOL
   14   13    0    0    0




@<TRIPOS>ATOM
   1   C1        2.6690    1.0520   -1.8840   c3 0 -0.06  0.0000
   2   C2        1.2420    0.8100   -1.4650   c3 0 -0.05  0.0000
   3   C3        1.1660    0.0560   -0.1540   c3 0 -0.05  0.0000
   4   C4       -0.2610   -0.1870    0.2650   c3 0 -0.06  0.0000
   5   H1        3.0586    1.9949   -1.4284   hc 0 0.023  0.0000
   6   H2        3.3244    0.2090   -1.5583   hc 0 0.023  0.0000
   7   H3        2.7369    1.1428   -2.9955   hc 0 0.023  0.0000
   8   H4        0.7070    1.7910   -1.3620   hc 0 0.026  0.0000
   9   H5        0.7090    0.2270   -2.2620   hc 0 0.026  0.0000
  10   H6        1.7010   -0.9250   -0.2580   hc 0 0.026  0.0000
  11   H7        1.6990    0.6390    0.6420   hc 0 0.026  0.0000
  12   H8       -0.2920   -0.7430    1.2320   hc 0 0.023  0.0000
  13   H9       -0.8030    0.7810    0.3960   hc 0 0.023  0.0000
  14  H10       -0.8010   -0.7880   -0.5060   hc 0 0.023  0.0000
@<TRIPOS>BOND
    1     1     2  1
    2     1     5  1
    3     1     6  1
    4     1     7  1
    5     2     3  1
    6     2     8  1
    7     2     9  1
    8     3     4  1
    9     3    10  1
   10     3    11  1
   11     4    12  1
   12     4    13  1
   13     4    14  1

@<TRIPOS>MOLECULE
MOL
   14   13    0    0    0




@<TRIPOS>ATOM
   1   C1        2.6690    1.0520   -1.8840   c3 0 -0.06  0.0000
   2   C2        1.2420    0.8100   -1.4650   c3 0 -0.05  0.0000
   3   C3        1.1660    0.0560   -0.1540   c3 0 -0.05  0.0000
   4   C4       -0.2610   -0.1870    0.2650   c3 0 -0.06  0.0000
   5   H1        3.0644    1.9854   -1.4140   hc 0 0.023  0.0000
   6   H2        3.3211    0.2005   -1.5741   hc 0 0.023  0.0000
   7   H3        2.7343    1.1608   -2.9940   hc 0 0.023  0.0000
   8   H4        0.7070    1.7910   -1.3620   hc 0 0.026  0.0000
   9   H5        0.7090    0.2270   -2.2620   hc 0 0.026  0.0000
  10   H6        1.7010   -0.9250   -0.2580   hc 0 0.026  0.0000
  11   H7        1.6990    0.6390    0.6420   hc 0 0.026  0.0000
  12   H8       -0.2920   -0.7430    1.2320   hc 0 0.023  0.0000
  13   H9       -0.8030    0.7810    0.3960   hc 0 0.023  0.0000
  14  H10       -0.8010   -0.7880   -0.5060   hc 0 0.023  0.0000
@<TRIPOS>BOND
    1     1     2  1
    2     1     5  1
    3     1     6  1
    4     1     7  1
    5     2     3  1
    6     2     8  1
    7     2     9  1
    8     3     4  1
    9     3    10  1
   10     3    11  1
   11     4    12  1
   12     4    13  1
   13     4    14  1

@<TRIPOS>MOLECULE
MOL
   14   13    0    0    0




@<TRIPOS>ATOM
   1   C1        2.6690    1.0520   -1.8840   c3 0 -0.06  0.0000
   2   C2        1.2420    0.8100   -1.4650   c3 0 -0.05  0.0000
   3   C3        1.1660    0.0560   -0.1540   c3 0 -0.05  0.0000
   4   C4       -0.2610   -0.1870    0.2650   c3 0 -0.06  0.0000
   5   H1        3.0703    1.9756   -1.3998   hc 0 0.023  0.0000
   6   H2        3.3178    0.1924   -1.5901   hc 0 0.023  0.0000
   7   H3        2.7318    1.1789   -2.9922   hc 0 0.023  0.0000
   8   H4        0.7070    1.7910   -1.3620   hc 0 0.026  0.0000
   9   H5        0.7090    0.2270   -2.2620   hc 0 0.026  0.0000
  10   H6        1.7010   -0.9250   -0.2580   hc 0 0.026  0.0000
  11   H7        1.6990    0.6390    0.6420   hc 0 0.026  0.0000
  12   H8       -0.2920   -0.7430    1.2320   hc 0 0.023  0.0000
  13   H9       -0.8030    0.7810    0.3960   hc 0 0.023  0.0000
  14  H10       -0.8010   -0.7880   -0.5060   hc 0 0.023  0.0000
@<TRIPOS>BOND
    1     1     2  1
    2     1     5  1
    3     1     6  1
    4     1     7  1
    5     2     3  1
    6     2     8  1
    7     2     9  1
    8     3     4  1
    9     3    10  1
   10     3    11  1
   11     4    12  1
   12     4    13  1
   13     4    14  1

@<TRIPOS>MOLECULE
MOL
   14   13    0    0    0




@<TRIPOS>ATOM
   1   C1        2.6690    1.0520   -1.8840   c3 0 -0.06  0.0000
   2   C2        1.2420    0.8100   -1.4650   c3 0 -0.05  0.0000
   3   C3        1.1660    0.0560   -0.1540   c3 0 -0.05  0.0000
   4   C4       -0.2610   -0.1870    0.2650   c3 0 -0.06  0.0000
   5   H1        3.0761    1.9655   -1.3857   hc 0 0.023  0.0000
   6   H2        3.3145    0.1845   -1.6062   hc 0 0.023  0.0000
   7   H3        2.7293    1.1969   -2.9902   hc 0 0.023  0.0000
   8   H4        0.7070    1.7910   -1.3620   hc 0 0.026  0.0000
   9   H5        0.7090    0.2270   -2.2620   hc 0 0.026  0.0000
  10   H6        1.7010   -0.9250   -0.2580   hc 0 0.026  0.0000
  11   H7        1.6990    0.6390    0.6420   hc 0 0.026  0.0000
  12   H8       -0.2920   -0.7430    1.2320   hc 0 0.023  0.0000
  13   H9       -0.8030    0.7810    0.3960   hc 0 0.023  0.0000
  14  H10       -0.8010   -0.7880   -0.5060   hc 0 0.023  0.0000
@<TRIPOS>BOND
    1     1     2  1
    2     1     5  1
    3     1     6  1
    4     1     7  1
    5     2     3  1
    6     2     8  1
    7     2     9  1
    8     3     4  1
    9     3    10  1
   10     3    11  1
   11     4    12  1
   12     4    13  1
   13     4    14  1

@<TRIPOS>MOLECULE
MOL
   14   13    0    0    0




@<TRIPOS>ATOM
   1   C1        2.6690    1.0520   -1.8840   c3 0 -0.06  0.0000
   2   C2        1.2420    0.8100   -1.4650   c3 0 -0.05  0.0000
   3   C3        1.1660    0.0560   -0.1540   c3 0 -0.05  0.0000
   4   C4       -0.2610   -0.1870    0.2650   c3 0 -0.06  0.0000
   5   H1        3.0819    1.9551   -1.3719   hc 0 0.023  0.0000
   6   H2        3.3110    0.1770   -1.6224   hc 0 0.023  0.0000
   7   H3        2.7270    1.2148   -2.9878   hc 0 0.023  0.0000
   8   H4        0.7070    1.7910   -1.3620   hc 0 0.026  0.0000
   9   H5        0.7090    0.2270   -2.2620   hc 0 0.026  0.0000
  10   H6        1.7010   -0.9250   -0.2580   hc 0 0.026  0.0000
  11   H7        1.6990    0.6390    0.6420   hc 0 0.026  0.0000
  12   H8       -0.2920   -0.7430    1.2320   hc 0 0.023  0.0000
  13   H9       -0.8030    0.7810    0.3960   hc 0 0.023  0.0000
  14  H10       -0.8010   -0.7880   -0.5060   hc 0 0.023  0.0000
@<TRIPOS>BOND
    1     1     2  1
    2     1     5  1
    3     1     6  1
    4     1     7  1
    5     2     3  1
    6     2     8  1
    7     2     9  1
    8     3     4  1
    9     3    10  1
   10     3    11  1
   11     4    12  1
   12     4    13  1
   13     4    14  1

@<TRIPOS>MOLECULE
MOL
   14   13    0    0    0




@<TRIPOS>ATOM
   1   C1        2.6690    1.0520   -1.8840   c3 0 -0.06  0.0000
   2   C2        1.2420    0.8100   -1.4650   c3 0 -0.05  0.0000
   3   C3        1.1660    0.0560   -0.1540   c3 0 -0.05  0.0000
   4   C4       -0.2610   -0.1870    0.2650   c3 0 -0.06  0.0000
   5   H1        3.0877    1.9445   -1.3582   hc 0 0.023  0.0000
   6   H2        3.3074    0.1697   -1.6387   hc 0 0.023  0.0000
   7   H3        2.7247    1.2328   -2.9851   hc 0 0.023  0.0000
   8   H4        0.7070    1.7910   -1.3620   hc 0 0.026  0.0000
   9   H5        0.7090    0.2270   -2.2620   hc 0 0.026  0.0000
  10   H6        1.7010   -0.9250   -0.2580   hc 0 0.026  0.0000
  11   H7        1.6990    0.6390    0.6420   hc 0 0.026  0.0000
  12   H8       -0.2920   -0.7430    1.2320   hc 0 0.023  0.0000
  13   H9       -0.8030    0.7810    0.3960   hc 0 0.023  0.0000
  14  H10       -0.8010   -0.7880   -0.5060   hc 0 0.023  0.0000
@<TRIPOS>BOND
    1     1     2  1
    2     1     5  1
    3     1     6  1
    4     1     7  1
    5     2     3  1
    6     2     8  1
    7     2     9  1
    8     3     4  1
    9     3    10  1
   10     3    11  1
   11     4    12  1
   12     4    13  1
   13     4    14  1

@<TRIPOS>MOLECULE
MOL
   14   13    0    0    0




@<TRIPOS>ATOM
   1   C1        2.6690    1.0520   -1.8840   c3 0 -0.06  0.0000
   2   C2        1.2420    0.8100   -1.4650   c3 0 -0.05  0.0000
   3   C3        1.1660    0.0560   -0.1540   c3 0 -0.05  0.0000
   4   C4       -0.2610   -0.1870    0.2650   c3 0 -0.06  0.0000
   5   H1        3.0935    1.9337   -1.3447   hc 0 0.023  0.0000
   6   H2        3.3038    0.1626   -1.6551   hc 0 0.023  0.0000
   7   H3        2.7226    1.2507   -2.9821   hc 0 0.023  0.0000
   8   H4        0.7070    1.7910   -1.3620   hc 0 0.026  0.0000
   9   H5        0.7090    0.2270   -2.2620   hc 0 0.026  0.0000
  10   H6        1.7010   -0.9250   -0.2580   hc 0 0.026  0.0000
  11   H7        1.6990    0.6390    0.6420   hc 0 0.026  0.0000
  12   H8       -0.2920   -0.7430    1.2320   hc 0 0.023  0.0000
  13   H9       -0.8030    0.7810    0.3960   hc 0 0.023  0.0000
  14  H10       -0.8010   -0.7880   -0.5060   hc 0 0.023  0.0000
@<TRIPOS>BOND
    1     1     2  1
    2     1     5  1
    3     1     6  1
    4     1     7  1
    5     2     3  1
    6     2     8  1
    7     2     9  1
    8     3     4  1
    9     3    10  1
   10     3    11  1
   11     4    12  1
   12     4    13  1
   13     4    14  1

@<TRIPOS>MOLECULE
MOL
   14   13    0    0    0




@<TRIPOS>ATOM
   1   C1        2.6690    1.0520   -1.8840   c3 0 -0.06  0.0000
   2   C2        1.2420    0.8100   -1.4650   c3 0 -0.05  0.0000
   3   C3        1.1660    0.0560   -0.1540   c3 0 -0.05  0.0000
   4   C4       -0.2610   -0.1870    0.2650   c3 0 -0.06  0.0000
   5   H1        3.0993    1.9226   -1.3314   hc 0 0.023  0.0000
   6   H2        3.3001    0.1559   -1.6717   hc 0 0.023  0.0000
   7   H3        2.7205    1.2686   -2.9788   hc 0 0.023  0.0000
   8   H4        0.7070    1.7910   -1.3620   hc 0 0.026  0.0000
   9   H5        0.7090    0.2270   -2.2620   hc 0 0.026  0.0000
  10   H6        1.7010   -0.9250   -0.2580   hc 0 0.026  0.0000
  11   H7        1.6990    0.6390    0.6420   hc 0 0.026  0.0000
  12   H8       -0.2920   -0.7430    1.2320   hc 0 0.023  0.0000
  13   H9       -0.8030    0.7810    0.3960   hc 0 0.023  0.0000
  14  H10       -0.8010   -0.7880   -0.5060   hc 0 0.023  0.0000
@<TRIPOS>BOND
    1     1     2  1
    2     1     5  1
    3     1     6  1
    4     1     7  1
    5     2     3  1
    6     2     8  1
    7     2     9  1
    8     3     4  1
    9     3    10  1
   10     3    11  1
   11     4    12  1
   12     4    13  1
   13     4    14  1

@<TRIPOS>MOLECULE
MOL
   14   13    0    0    0




@<TRIPOS>ATOM
   1   C1        2.6690    1.0520   -1.8840   c3 0 -0.06  0.0000
   2   C2        1.2420    0.8100   -1.4650   c3 0 -0.05  0.0000
   3   C3        1.1660    0.0560   -0.1540   c3 0 -0.05  0.0000
   4   C4       -0.2610   -0.1870    0.2650   c3 0 -0.06  0.0000
   5   H1        3.1051    1.9113   -1.3183   hc 0 0.023  0.0000
   6   H2        3.2963    0.1495   -1.6883   hc 0 0.023  0.0000
   7   H3        2.7185    1.2864   -2.9753   hc 0 0.023  0.0000
   8   H4        0.7070    1.7910   -1.3620   hc 0 0.026  0.0000
   9   H5        0.7090    0.2270   -2.2620   hc 0 0.026  0.0000
  10   H6        1.7010   -0.9250   -0.2580   hc 0 0.026  0.0000
  11   H7        1.6990    0.6390    0.6420   hc 0 0.026  0.0000
  12   H8       -0.2920   -0.7430    1.2320   hc 0 0.023  0.0000
  13   H9       -0.8030    0.7810    0.3960   hc 0 0.023  0.0000
  14  H10       -0.8010   -0.7880   -0.5060   hc 0 0.023  0.0000
@<TRIPOS>BOND
    1     1     2  1
    2     1     5  1
    3     1     6  1
    4     1     7  1
    5     2     3  1
    6     2     8  1
    7     2     9  1
    8     3     4  1
    9     3    10  1
   10     3    11  1
   11     4    12  1
   12     4    13  1
   13     4    14  1

@<TRIPOS>MOLECULE
MOL
   14   13    0    0    0




@<TRIPOS>ATOM
   1   C1        2.6690    1.0520   -1.8840   c3 0 -0.06  0.0000
   2   C2        1.2420    0.8100   -1.4650   c3 0 -0.05  0.0000
   3   C3        1.1660    0.0560   -0.1540   c3 0 -0.05  0.0000
   4   C4       -0.2610   -0.1870    0.2650   c3 0 -0.06  0.0000
   5   H1        3.1108    1.8997   -1.3055   hc 0 0.023  0.0000
   6   H2        3.2924    0.1434   -1.7050   hc 0 0.023  0.0000
   7   H3        2.7166    1.3042   -2.9714   hc 0 0.023  0.0000
   8   H4        0.7070    1.7910   -1.3620   hc 0 0.026  0.0000
   9   H5        0.7090    0.2270   -2.2620   hc 0 0.026  0.0000
  10   H6        1.7010   -0.9250   -0.2580   hc 0 0.026  0.0000
  11   H7        1.6990    0.6390    0.6420   hc 0 0.026  0.0000
  12   H8       -0.2920   -0.7430    1.2320   hc 0 0.023  0.0000
  13   H9       -0.8030    0.7810    0.3960   hc 0 0.023  0.0000
  14  H10       -0.8010   -0.7880   -0.5060   hc 0 0.023  0.0000
@<TRIPOS>BOND
    1     1     2  1
    2     1     5  1
    3     1     6  1
    4     1     7  1
    5     2     3  1
    6     2     8  1
    7     2     9  1
    8     3     4  1
    9     3    10  1
   10     3    11  1
   11     4    12  1
   12     4    13  1
   13     4    14  1

@<TRIPOS>MOLECULE
MOL
   14   13    0    0    0




@<TRIPOS>ATOM
   1   C1        2.6690    1.0520   -1.8840   c3 0 -0.06  0.0000
   2   C2        1.2420    0.8100   -1.4650   c3 0 -0.05  0.0000
   3   C3        1.1660    0.0560   -0.1540   c3 0 -0.05  0.0000
   4   C4       -0.2610   -0.1870    0.2650   c3 0 -0.06  0.0000
   5   H1        3.1166    1.8878   -1.2928   hc 0 0.023  0.0000
   6   H2        3.2885    0.1375   -1.7218   hc 0 0.023  0.0000
   7   H3        2.7149    1.3219   -2.9672   hc 0 0.023  0.0000
   8   H4        0.7070    1.7910   -1.3620   hc 0 0.026  0.0000
   9   H5        0.7090    0.2270   -2.2620   hc 0 0.026  0.0000
  10   H6        1.7010   -0.9250   -0.2580   hc 0 0.026  0.0000
  11   H7        1.6990    0.6390    0.6420   hc 0 0.026  0.0000
  12   H8       -0.2920   -0.7430    1.2320   hc 0 0.023  0.0000
  13   H9       -0.8030    0.7810    0.3960   hc 0 0.023  0.0000
  14  H10       -0.8010   -0.7880   -0.5060   hc 0 0.023  0.0000
@<TRIPOS>BOND
    1     1     2  1
    2     1     5  1
    3     1     6  1
    4     1     7  1
    5     2     3  1
    6     2     8  1
    7     2     9  1
    8     3     4  1
    9     3    10  1
   10     3    11  1
   11     4    12  1
   12     4    13  1
   13     4    14  1

@<TRIPOS>MOLECULE
MOL
   14   13    0    0    0




@<TRIPOS>ATOM
   1   C1        2.6690    1.0520   -1.8840   c3 0 -0.06  0.0000
   2   C2        1.2420    0.8100   -1.4650   c3 0 -0.05  0.0000
   3   C3        1.1660    0.0560   -0.1540   c3 0 -0.05  0.0000
   4   C4       -0.2610   -0.1870    0.2650   c3 0 -0.06  0.0000
   5   H1        3.1223    1.8758   -1.2803   hc 0 0.023  0.0000
   6   H2        3.2844    0.1320   -1.7387   hc 0 0.023  0.0000
   7   H3        2.7132    1.3395   -2.9627   hc 0 0.023  0.0000
   8   H4        0.7070    1.7910   -1.3620   hc 0 0.026  0.0000
   9   H5        0.7090    0.2270   -2.2620   hc 0 0.026  0.0000
  10   H6        1.7010   -0.9250   -0.2580   hc 0 0.026  0.0000
  11   H7        1.6990    0.6390    0.6420   hc 0 0.026  0.0000
  12   H8       -0.2920   -0.7430    1.2320   hc 0 0.023  0.0000
  13   H9       -0.8030    0.7810    0.3960   hc 0 0.023  0.0000
  14  H10       -0.8010   -0.7880   -0.5060   hc 0 0.023  0.0000
@<TRIPOS>BOND
    1     1     2  1
    2     1     5  1
    3     1     6  1
    4     1     7  1
    5     2     3  1
    6     2     8  1
    7     2     9  1
    8     3     4  1
    9     3    10  1
   10     3    11  1
   11     4    12  1
   12     4    13  1
   13     4    14  1

@<TRIPOS>MOLECULE
MOL
   14   13    0    0    0




@<TRIPOS>ATOM
   1   C1        2.6690    1.0520   -1.8840   c3 0 -0.06  0.0000
   2   C2        1.2420    0.8100   -1.4650   c3 0 -0.05  0.0000
   3   C3        1.1660    0.0560   -0.1540   c3 0 -0.05  0.0000
   4   C4       -0.2610   -0.1870    0.2650   c3 0 -0.06  0.0000
   5   H1        3.1279    1.8635   -1.2681   hc 0 0.023  0.0000
   6   H2        3.2804    0.1268   -1.7557   hc 0 0.023  0.0000
   7   H3        2.7116    1.3571   -2.9579   hc 0 0.023  0.0000
   8   H4        0.7070    1.7910   -1.3620   hc 0 0.026  0.0000
   9   H5        0.7090    0.2270   -2.2620   hc 0 0.026  0.0000
  10   H6        1.7010   -0.9250   -0.2580   hc 0 0.026  0.0000
  11   H7        1.6990    0.6390    0.6420   hc 0 0.026  0.0000
  12   H8       -0.2920   -0.7430    1.2320   hc 0 0.023  0.0000
  13   H9       -0.8030    0.7810    0.3960   hc 0 0.023  0.0000
  14  H10       -0.8010   -0.7880   -0.5060   hc 0 0.023  0.0000
@<TRIPOS>BOND
    1     1     2  1
    2     1     5  1
    3     1     6  1
    4     1     7  1
    5     2     3  1
    6     2     8  1
    7     2     9  1
    8     3     4  1
    9     3    10  1
   10     3    11  1
   11     4    12  1
   12     4    13  1
   13     4    14  1

@<TRIPOS>MOLECULE
MOL
   14   13    0    0    0




@<TRIPOS>ATOM
   1   C1        2.6690    1.0520   -1.8840   c3 0 -0.06  0.0000
   2   C2        1.2420    0.8100   -1.4650   c3 0 -0.05  0.0000
   3   C3        1.1660    0.0560   -0.1540   c3 0 -0.05  0.0000
   4   C4       -0.2610   -0.1870    0.2650   c3 0 -0.06  0.0000
   5   H1        3.1336    1.8510   -1.2561   hc 0 0.023  0.0000
   6   H2        3.2762    0.1218   -1.7727   hc 0 0.023  0.0000
   7   H3        2.7101    1.3746   -2.9529   hc 0 0.023  0.0000
   8   H4        0.7070    1.7910   -1.3620   hc 0 0.026  0.0000
   9   H5        0.7090    0.2270   -2.2620   hc 0 0.026  0.0000
  10   H6        1.7010   -0.9250   -0.2580   hc 0 0.026  0.0000
  11   H7        1.6990    0.6390    0.6420   hc 0 0.026  0.0000
  12   H8       -0.2920   -0.7430    1.2320   hc 0 0.023  0.0000
  13   H9       -0.8030    0.7810    0.3960   hc 0 0.023  0.0000
  14  H10       -0.8010   -0.7880   -0.5060   hc 0 0.023  0.0000
@<TRIPOS>BOND
    1     1     2  1
    2     1     5  1
    3     1     6  1
    4     1     7  1
    5     2     3  1
    6     2     8  1
    7     2     9  1
    8     3     4  1
    9     3    10  1
   10     3    11  1
   11     4    12  1
   12     4    13  1
   13     4    14  1

@<TRIPOS>MOLECULE
MOL
   14   13    0    0    0




@<TRIPOS>ATOM
   1   C1        2.6690    1.0520   -1.8840   c3 0 -0.06  0.0000
   2   C2        1.2420    0.8100   -1.4650   c3 0 -0.05  0.0000
   3   C3        1.1660    0.0560   -0.1540   c3 0 -0.05  0.0000
   4   C4       -0.2610   -0.1870    0.2650   c3 0 -0.06  0.0000
   5   H1        3.1392    1.8382   -1.2443   hc 0 0.023  0.0000
   6   H2        3.2719    0.1172   -1.7898   hc 0 0.023  0.0000
   7   H3        2.7088    1.3920   -2.9475   hc 0 0.023  0.0000
   8   H4        0.7070    1.7910   -1.3620   hc 0 0.026  0.0000
   9   H5        0.7090    0.2270   -2.2620   hc 0 0.026  0.0000
  10   H6        1.7010   -0.9250   -0.2580   hc 0 0.026  0.0000
  11   H7        1.6990    0.6390    0.6420   hc 0 0.026  0.0000
  12   H8       -0.2920   -0.7430    1.2320   hc 0 0.023  0.0000
  13   H9       -0.8030    0.7810    0.3960   hc 0 0.023  0.0000
  14  H10       -0.8010   -0.7880   -0.5060   hc 0 0.023  0.0000
@<TRIPOS>BOND
    1     1     2  1
    2     1     5  1
    3     1     6  1
    4     1     7  1
    5     2     3  1
    6     2     8  1
    7     2     9  1
    8     3     4  1
    9     3    10  1
   10     3    11  1
   11     4    12  1
   12     4    13  1
   13     4    14  1

@<TRIPOS>MOLECULE
MOL
   14   13    0    0    0




@<TRIPOS>ATOM
   1   C1        2.6690    1.0520   -1.8840   c3 0 -0.06  0.0000
   2   C2        1.2420    0.8100   -1.4650   c3 0 -0.05  0.0000
   3   C3        1.1660    0.0560   -0.1540   c3 0 -0.05  0.0000
   4   C4       -0.2610   -0.1870    0.2650   c3 0 -0.06  0.0000
   5   H1        3.1448    1.8253   -1.2327   hc 0 0.023  0.0000
   6   H2        3.2676    0.1129   -1.8070   hc 0 0.023  0.0000
   7   H3        2.7075    1.4094   -2.9418   hc 0 0.023  0.0000
   8   H4        0.7070    1.7910   -1.3620   hc 0 0.026  0.0000
   9   H5        0.7090    0.2270   -2.2620   hc 0 0.026  0.0000
  10   H6        1.7010   -0.9250   -0.2580   hc 0 0.026  0.0000
  11   H7        1.6990    0.6390    0.6420   hc 0 0.026  0.0000
  12   H8       -0.2920   -0.7430    1.2320   hc 0 0.023  0.0000
  13   H9       -0.8030    0.7810    0.3960   hc 0 0.023  0.0000
  14  H10       -0.8010   -0.7880   -0.5060   hc 0 0.023  0.0000
@<TRIPOS>BOND
    1     1     2  1
    2     1     5  1
    3     1     6  1
    4     1     7  1
    5     2     3  1
    6     2     8  1
    7     2     9  1
    8     3     4  1
    9     3    10  1
   10     3    11  1
   11     4    12  1
   12     4    13  1
   13     4    14  1

@<TRIPOS>MOLECULE
MOL
   14   13    0    0    0




@<TRIPOS>ATOM
   1   C1        2.6690    1.0520   -1.8840   c3 0 -0.06  0.0000
   2   C2        1.2420    0.8100   -1.4650   c3 0 -0.05  0.0000
   3   C3        1.1660    0.0560   -0.1540   c3 0 -0.05  0.0000
   4   C4       -0.2610   -0.1870    0.2650   c3 0 -0.06  0.0000
   5   H1        3.1504    1.8121   -1.2214   hc 0 0.023  0.0000
   6   H2        3.2633    0.1088   -1.8242   hc 0 0.023  0.0000
   7   H3        2.7063    1.4266   -2.9359   hc 0 0.023  0.0000
   8   H4        0.7070    1.7910   -1.3620   hc 0 0.026  0.0000
   9   H5        0.7090    0.2270   -2.2620   hc 0 0.026  0.0000
  10   H6        1.7010   -0.9250   -0.2580   hc 0 0.026  0.0000
  11   H7        1.6990    0.6390    0.6420   hc 0 0.026  0.0000
  12   H8       -0.2920   -0.7430    1.2320   hc 0 0.023  0.0000
  13   H9       -0.8030    0.7810    0.3960   hc 0 0.023  0.0000
  14  H10       -0.8010   -0.7880   -0.5060   hc 0 0.023  0.0000
@<TRIPOS>BOND
    1     1     2  1
    2     1     5  1
    3     1     6  1
    4     1     7  1
    5     2     3  1
    6     2     8  1
    7     2     9  1
    8     3     4  1
    9     3    10  1
   10     3    11  1
   11     4    12  1
   12     4    13  1
   13     4    14  1

@<TRIPOS>MOLECULE
MOL
   14   13    0    0    0




@<TRIPOS>ATOM
   1   C1        2.6690    1.0520   -1.8840   c3 0 -0.06  0.0000
   2   C2        1.2420    0.8100   -1.4650   c3 0 -0.05  0.0000
   3   C3        1.1660    0.0560   -0.1540   c3 0 -0.05  0.0000
   4   C4       -0.2610   -0.1870    0.2650   c3 0 -0.06  0.0000
   5   H1        3.1559    1.7987   -1.2103   hc 0 0.023  0.0000
   6   H2        3.2588    0.1051   -1.8415   hc 0 0.023  0.0000
   7   H3        2.7052    1.4438   -2.9297   hc 0 0.023  0.0000
   8   H4        0.7070    1.7910   -1.3620   hc 0 0.026  0.0000
   9   H5        0.7090    0.2270   -2.2620   hc 0 0.026  0.0000
  10   H6        1.7010   -0.9250   -0.2580   hc 0 0.026  0.0000
  11   H7        1.6990    0.6390    0.6420   hc 0 0.026  0.0000
  12   H8       -0.2920   -0.7430    1.2320   hc 0 0.023  0.0000
  13   H9       -0.8030    0.7810    0.3960   hc 0 0.023  0.0000
  14  H10       -0.8010   -0.7880   -0.5060   hc 0 0.023  0.0000
@<TRIPOS>BOND
    1     1     2  1
    2     1     5  1
    3     1     6  1
    4     1     7  1
    5     2     3  1
    6     2     8  1
    7     2     9  1
    8     3     4  1
    9     3    10  1
   10     3    11  1
   11     4    12  1
   12     4    13  1
   13     4    14  1

@<TRIPOS>MOLECULE
MOL
   14   13    0    0    0




@<TRIPOS>ATOM
   1   C1        2.6690    1.0520   -1.8840   c3 0 -0.06  0.0000
   2   C2        1.2420    0.8100   -1.4650   c3 0 -0.05  0.0000
   3   C3        1.1660    0.0560   -0.1540   c3 0 -0.05  0.0000
   4   C4       -0.2610   -0.1870    0.2650   c3 0 -0.06  0.0000
   5   H1        3.1614    1.7851   -1.1995   hc 0 0.023  0.0000
   6   H2        3.2543    0.1017   -1.8588   hc 0 0.023  0.0000
   7   H3        2.7042    1.4608   -2.9232   hc 0 0.023  0.0000
   8   H4        0.7070    1.7910   -1.3620   hc 0 0.026  0.0000
   9   H5        0.7090    0.2270   -2.2620   hc 0 0.026  0.0000
  10   H6        1.7010   -0.9250   -0.2580   hc 0 0.026  0.0000
  11   H7        1.6990    0.6390    0.6420   hc 0 0.026  0.0000
  12   H8       -0.2920   -0.7430    1.2320   hc 0 0.023  0.0000
  13   H9       -0.8030    0.7810    0.3960   hc 0 0.023  0.0000
  14  H10       -0.8010   -0.7880   -0.5060   hc 0 0.023  0.0000
@<TRIPOS>BOND
    1     1     2  1
    2     1     5  1
    3     1     6  1
    4     1     7  1
    5     2     3  1
    6     2     8  1
    7     2     9  1
    8     3     4  1
    9     3    10  1
   10     3    11  1
   11     4    12  1
   12     4    13  1
   13     4    14  1

@<TRIPOS>MOLECULE
MOL
   14   13    0    0    0




@<TRIPOS>ATOM
   1   C1        2.6690    1.0520   -1.8840   c3 0 -0.06  0.0000
   2   C2        1.2420    0.8100   -1.4650   c3 0 -0.05  0.0000
   3   C3        1.1660    0.0560   -0.1540   c3 0 -0.05  0.0000
   4   C4       -0.2610   -0.1870    0.2650   c3 0 -0.06  0.0000
   5   H1        3.1668    1.7713   -1.1888   hc 0 0.023  0.0000
   6   H2        3.2497    0.0986   -1.8762   hc 0 0.023  0.0000
   7   H3        2.7034    1.4778   -2.9164   hc 0 0.023  0.0000
   8   H4        0.7070    1.7910   -1.3620   hc 0 0.026  0.0000
   9   H5        0.7090    0.2270   -2.2620   hc 0 0.026  0.0000
  10   H6        1.7010   -0.9250   -0.2580   hc 0 0.026  0.0000
  11   H7        1.6990    0.6390    0.6420   hc 0 0.026  0.0000
  12   H8       -0.2920   -0.7430    1.2320   hc 0 0.023  0.0000
  13   H9       -0.8030    0.7810    0.3960   hc 0 0.023  0.0000
  14  H10       -0.8010   -0.7880   -0.5060   hc 0 0.023  0.0000
@<TRIPOS>BOND
    1     1     2  1
    2     1     5  1
    3     1     6  1
    4     1     7  1
    5     2     3  1
    6     2     8  1
    7     2     9  1
    8     3     4  1
    9     3    10  1
   10     3    11  1
   11     4    12  1
   12     4    13  1
   13     4    14  1

@<TRIPOS>MOLECULE
MOL
   14   13    0    0    0




@<TRIPOS>ATOM
   1   C1        2.6690    1.0520   -1.8840   c3 0 -0.06  0.0000
   2   C2        1.2420    0.8100   -1.4650   c3 0 -0.05  0.0000
   3   C3        1.1660    0.0560   -0.1540   c3 0 -0.05  0.0000
   4   C4       -0.2610   -0.1870    0.2650   c3 0 -0.06  0.0000
   5   H1        3.1723    1.7573   -1.1785   hc 0 0.023  0.0000
   6   H2        3.2451    0.0958   -1.8936   hc 0 0.023  0.0000
   7   H3        2.7026    1.4946   -2.9093   hc 0 0.023  0.0000
   8   H4        0.7070    1.7910   -1.3620   hc 0 0.026  0.0000
   9   H5        0.7090    0.2270   -2.2620   hc 0 0.026  0.0000
  10   H6        1.7010   -0.9250   -0.2580   hc 0 0.026  0.0000
  11   H7        1.6990    0.6390    0.6420   hc 0 0.026  0.0000
  12   H8       -0.2920   -0.7430    1.2320   hc 0 0.023  0.0000
  13   H9       -0.8030    0.7810    0.3960   hc 0 0.023  0.0000
  14  H10       -0.8010   -0.7880   -0.5060   hc 0 0.023  0.0000
@<TRIPOS>BOND
    1     1     2  1
    2     1     5  1
    3     1     6  1
    4     1     7  1
    5     2     3  1
    6     2     8  1
    7     2     9  1
    8     3     4  1
    9     3    10  1
   10     3    11  1
   11     4    12  1
   12     4    13  1
   13     4    14  1

@<TRIPOS>MOLECULE
MOL
   14   13    0    0    0




@<TRIPOS>ATOM
   1   C1        2.6690    1.0520   -1.8840   c3 0 -0.06  0.0000
   2   C2        1.2420    0.8100   -1.4650   c3 0 -0.05  0.0000
   3   C3        1.1660    0.0560   -0.1540   c3 0 -0.05  0.0000
   4   C4       -0.2610   -0.1870    0.2650   c3 0 -0.06  0.0000
   5   H1        3.1776    1.7431   -1.1683   hc 0 0.023  0.0000
   6   H2        3.2404    0.0933   -1.9111   hc 0 0.023  0.0000
   7   H3        2.7019    1.5114   -2.9019   hc 0 0.023  0.0000
   8   H4        0.7070    1.7910   -1.3620   hc 0 0.026  0.0000
   9   H5        0.7090    0.2270   -2.2620   hc 0 0.026  0.0000
  10   H6        1.7010   -0.9250   -0.2580   hc 0 0.026  0.0000
  11   H7        1.6990    0.6390    0.6420   hc 0 0.026  0.0000
  12   H8       -0.2920   -0.7430    1.2320   hc 0 0.023  0.0000
  13   H9       -0.8030    0.7810    0.3960   hc 0 0.023  0.0000
  14  H10       -0.8010   -0.7880   -0.5060   hc 0 0.023  0.0000
@<TRIPOS>BOND
    1     1     2  1
    2     1     5  1
    3     1     6  1
    4     1     7  1
    5     2     3  1
    6     2     8  1
    7     2     9  1
    8     3     4  1
    9     3    10  1
   10     3    11  1
   11     4    12  1
   12     4    13  1
   13     4    14  1

@<TRIPOS>MOLECULE
MOL
   14   13    0    0    0




@<TRIPOS>ATOM
   1   C1        2.6690    1.0520   -1.8840   c3 0 -0.06  0.0000
   2   C2        1.2420    0.8100   -1.4650   c3 0 -0.05  0.0000
   3   C3        1.1660    0.0560   -0.1540   c3 0 -0.05  0.0000
   4   C4       -0.2610   -0.1870    0.2650   c3 0 -0.06  0.0000
   5   H1        3.1830    1.7287   -1.1585   hc 0 0.023  0.0000
   6   H2        3.2356    0.0912   -1.9285   hc 0 0.023  0.0000
   7   H3        2.7013    1.5280   -2.8943   hc 0 0.023  0.0000
   8   H4        0.7070    1.7910   -1.3620   hc 0 0.026  0.0000
   9   H5        0.7090    0.2270   -2.2620   hc 0 0.026  0.0000
  10   H6        1.7010   -0.9250   -0.2580   hc 0 0.026  0.0000
  11   H7        1.6990    0.6390    0.6420   hc 0 0.026  0.0000
  12   H8       -0.2920   -0.7430    1.2320   hc 0 0.023  0.0000
  13   H9       -0.8030    0.7810    0.3960   hc 0 0.023  0.0000
  14  H10       -0.8010   -0.7880   -0.5060   hc 0 0.023  0.0000
@<TRIPOS>BOND
    1     1     2  1
    2     1     5  1
    3     1     6  1
    4     1     7  1
    5     2     3  1
    6     2     8  1
    7     2     9  1
    8     3     4  1
    9     3    10  1
   10     3    11  1
   11     4    12  1
   12     4    13  1
   13     4    14  1

@<TRIPOS>MOLECULE
MOL
   14   13    0    0    0




@<TRIPOS>ATOM
   1   C1        2.6690    1.0520   -1.8840   c3 0 -0.06  0.0000
   2   C2        1.2420    0.8100   -1.4650   c3 0 -0.05  0.0000
   3   C3        1.1660    0.0560   -0.1540   c3 0 -0.05  0.0000
   4   C4       -0.2610   -0.1870    0.2650   c3 0 -0.06  0.0000
   5   H1        3.1883    1.7141   -1.1489   hc 0 0.023  0.0000
   6   H2        3.2308    0.0893   -1.9460   hc 0 0.023  0.0000
   7   H3        2.7009    1.5444   -2.8864   hc 0 0.023  0.0000
   8   H4        0.7070    1.7910   -1.3620   hc 0 0.026  0.0000
   9   H5        0.7090    0.2270   -2.2620   hc 0 0.026  0.0000
  10   H6        1.7010   -0.9250   -0.2580   hc 0 0.026  0.0000
  11   H7        1.6990    0.6390    0.6420   hc 0 0.026  0.0000
  12   H8       -0.2920   -0.7430    1.2320   hc 0 0.023  0.0000
  13   H9       -0.8030    0.7810    0.3960   hc 0 0.023  0.0000
  14  H10       -0.8010   -0.7880   -0.5060   hc 0 0.023  0.0000
@<TRIPOS>BOND
    1     1     2  1
    2     1     5  1
    3     1     6  1
    4     1     7  1
    5     2     3  1
    6     2     8  1
    7     2     9  1
    8     3     4  1
    9     3    10  1
   10     3    11  1
   11     4    12  1
   12     4    13  1
   13     4    14  1

@<TRIPOS>MOLECULE
MOL
   14   13    0    0    0




@<TRIPOS>ATOM
   1   C1        2.6690    1.0520   -1.8840   c3 0 -0.06  0.0000
   2   C2        1.2420    0.8100   -1.4650   c3 0 -0.05  0.0000
   3   C3        1.1660    0.0560   -0.1540   c3 0 -0.05  0.0000
   4   C4       -0.2610   -0.1870    0.2650   c3 0 -0.06  0.0000
   5   H1        3.1935    1.6993   -1.1395   hc 0 0.023  0.0000
   6   H2        3.2260    0.0878   -1.9635   hc 0 0.023  0.0000
   7   H3        2.7005    1.5608   -2.8782   hc 0 0.023  0.0000
   8   H4        0.7070    1.7910   -1.3620   hc 0 0.026  0.0000
   9   H5        0.7090    0.2270   -2.2620   hc 0 0.026  0.0000
  10   H6        1.7010   -0.9250   -0.2580   hc 0 0.026  0.0000
  11   H7        1.6990    0.6390    0.6420   hc 0 0.026  0.0000
  12   H8       -0.2920   -0.7430    1.2320   hc 0 0.023  0.0000
  13   H9       -0.8030    0.7810    0.3960   hc 0 0.023  0.0000
  14  H10       -0.8010   -0.7880   -0.5060   hc 0 0.023  0.0000
@<TRIPOS>BOND
    1     1     2  1
    2     1     5  1
    3     1     6  1
    4     1     7  1
    5     2     3  1
    6     2     8  1
    7     2     9  1
    8     3     4  1
    9     3    10  1
   10     3    11  1
   11     4    12  1
   12     4    13  1
   13     4    14  1

@<TRIPOS>MOLECULE
MOL
   14   13    0    0    0




@<TRIPOS>ATOM
   1   C1        2.6690    1.0520   -1.8840   c3 0 -0.06  0.0000
   2   C2        1.2420    0.8100   -1.4650   c3 0 -0.05  0.0000
   3   C3        1.1660    0.0560   -0.1540   c3 0 -0.05  0.0000
   4   C4       -0.2610   -0.1870    0.2650   c3 0 -0.06  0.0000
   5   H1        3.1987    1.6844   -1.1304   hc 0 0.023  0.0000
   6   H2        3.2210    0.0865   -1.9810   hc 0 0.023  0.0000
   7   H3        2.7002    1.5770   -2.8697   hc 0 0.023  0.0000
   8   H4        0.7070    1.7910   -1.3620   hc 0 0.026  0.0000
   9   H5        0.7090    0.2270   -2.2620   hc 0 0.026  0.0000
  10   H6        1.7010   -0.9250   -0.2580   hc 0 0.026  0.0000
  11   H7        1.6990    0.6390    0.6420   hc 0 0.026  0.0000
  12   H8       -0.2920   -0.7430    1.2320   hc 0 0.023  0.0000
  13   H9       -0.8030    0.7810    0.3960   hc 0 0.023  0.0000
  14  H10       -0.8010   -0.7880   -0.5060   hc 0 0.023  0.0000
@<TRIPOS>BOND
    1     1     2  1
    2     1     5  1
    3     1     6  1
    4     1     7  1
    5     2     3  1
    6     2     8  1
    7     2     9  1
    8     3     4  1
    9     3    10  1
   10     3    11  1
   11     4    12  1
   12     4    13  1
   13     4    14  1

@<TRIPOS>MOLECULE
MOL
   14   13    0    0    0




@<TRIPOS>ATOM
   1   C1        2.6690    1.0520   -1.8840   c3 0 -0.06  0.0000
   2   C2        1.2420    0.8100   -1.4650   c3 0 -0.05  0.0000
   3   C3        1.1660    0.0560   -0.1540   c3 0 -0.05  0.0000
   4   C4       -0.2610   -0.1870    0.2650   c3 0 -0.06  0.0000
   5   H1        3.2039    1.6693   -1.1216   hc 0 0.023  0.0000
   6   H2        3.2160    0.0856   -1.9985   hc 0 0.023  0.0000
   7   H3        2.7001    1.5931   -2.8610   hc 0 0.023  0.0000
   8   H4        0.7070    1.7910   -1.3620   hc 0 0.026  0.0000
   9   H5        0.7090    0.2270   -2.2620   hc 0 0.026  0.0000
  10   H6        1.7010   -0.9250   -0.2580   hc 0 0.026  0.0000
  11   H7        1.6990    0.6390    0.6420   hc 0 0.026  0.0000
  12   H8       -0.2920   -0.7430    1.2320   hc 0 0.023  0.0000
  13   H9       -0.8030    0.7810    0.3960   hc 0 0.023  0.0000
  14  H10       -0.8010   -0.7880   -0.5060   hc 0 0.023  0.0000
@<TRIPOS>BOND
    1     1     2  1
    2     1     5  1
    3     1     6  1
    4     1     7  1
    5     2     3  1
    6     2     8  1
    7     2     9  1
    8     3     4  1
    9     3    10  1
   10     3    11  1
   11     4    12  1
   12     4    13  1
   13     4    14  1

@<TRIPOS>MOLECULE
MOL
   14   13    0    0    0




@<TRIPOS>ATOM
   1   C1        2.6690    1.0520   -1.8840   c3 0 -0.06  0.0000
   2   C2        1.2420    0.8100   -1.4650   c3 0 -0.05  0.0000
   3   C3        1.1660    0.0560   -0.1540   c3 0 -0.05  0.0000
   4   C4       -0.2610   -0.1870    0.2650   c3 0 -0.06  0.0000
   5   H1        3.2090    1.6540   -1.1130   hc 0 0.023  0.0000
   6   H2        3.2110    0.0850   -2.0160   hc 0 0.023  0.0000
   7   H3        2.7000    1.6090   -2.8520   hc 0 0.023  0.0000
   8   H4        0.7070    1.7910   -1.3620   hc 0 0.026  0.0000
   9   H5        0.7090    0.2270   -2.2620   hc 0 0.026  0.0000
  10   H6        1.7010   -0.9250   -0.2580   hc 0 0.026  0.0000
  11   H7        1.6990    0.6390    0.6420   hc 0 0.026  0.0000
  12   H8       -0.2920   -0.7430    1.2320   hc 0 0.023  0.0000
  13   H9       -0.8030    0.7810    0.3960   hc 0 0.023  0.0000
  14  H10       -0.8010   -0.7880   -0.5060   hc 0 0.023  0.0000
@<TRIPOS>BOND
    1     1     2  1
    2     1     5  1
    3     1     6  1
    4     1     7  1
    5     2     3  1
    6     2     8  1
    7     2     9  1
    8     3     4  1
    9     3    10  1
   10     3    11  1
   11     4    12  1
   12     4    13  1
   13     4    14  1

