@<TRIPOS>MOLECULE
MOL
   23   22    1    0    0
SMALL
bcc


@<TRIPOS>ATOM
   1    C        0.1860   -1.9680   -0.8620   c3 0 MOL -0.0931
   2   C1        1.1770   -0.8590   -0.4350   c3 0 MOL -0.0804
   3   C2        1.4010    0.2030   -1.5520   c3 0 MOL -0.0764
   4   C3        2.4350    1.3410   -1.2400   c3 0 MOL -0.0657
   5   C4        2.0270    2.1830    0.0030   c3 0 MOL -0.0901
   6   C5        2.6440    2.3040   -2.4590   c3 0 MOL -0.0784
   7   C6        3.2070    1.6560   -3.7460   c3 0 MOL -0.0921
   8    H        0.0650   -2.6880   -0.0500   hc 0 MOL  0.0320
   9   H1        0.5570   -2.4960   -1.7430   hc 0 MOL  0.0320
  10   H2       -0.7890   -1.5340   -1.0930   hc 0 MOL  0.0320
  11   H3        0.7810   -0.3860    0.4670   hc 0 MOL  0.0382
  12   H4        2.1340   -1.3250   -0.1820   hc 0 MOL  0.0382
  13   H5        1.7430   -0.3470   -2.4310   hc 0 MOL  0.0402
  14   H6        0.4370    0.6560   -1.8000   hc 0 MOL  0.0402
  15   H7        3.3980    0.8730   -1.0130   hc 0 MOL  0.0477
  16   H8        2.7350    2.9970    0.1680   hc 0 MOL  0.0327
  17   H9        2.0210    1.5720    0.9070   hc 0 MOL  0.0327
  18  H10        1.0340    2.6170   -0.1340   hc 0 MOL  0.0327
  19  H11        3.3520    3.0870   -2.1710   hc 0 MOL  0.0392
  20  H12        1.6960    2.7930   -2.7070   hc 0 MOL  0.0392
  21  H13        3.4320    2.4330   -4.4770   hc 0 MOL  0.0327
  22  H14        2.4790    0.9780   -4.1940   hc 0 MOL  0.0327
  23  H15        4.1250    1.1070   -3.5320   hc 0 MOL  0.0327
@<TRIPOS>BOND
    1     1     2  1
    2     1     8  1
    3     1     9  1
    4     1    10  1
    5     2     3  1
    6     2    11  1
    7     2    12  1
    8     3     4  1
    9     3    13  1
   10     3    14  1
   11     4     5  1
   12     4     6  1
   13     4    15  1
   14     5    16  1
   15     5    17  1
   16     5    18  1
   17     6     7  1
   18     6    19  1
   19     6    20  1
   20     7    21  1
   21     7    22  1
   22     7    23  1
@<TRIPOS>SUBSTRUCTURE
1 MOL         1 TEMP              0 ****  ****    0 ROOT
