@<TRIPOS>MOLECULE
MOL
10 9 1
SMALL
USER_CHARGES
@<TRIPOS>ATOM
1	C1     0.6360     1.3468     0.4895	C.3	1	noname	0.0663
2	C2     0.0249    -0.0493     0.2744	C.3	1	noname	0.0663
3	O1     1.0575    -1.0033     0.0578	O.3	1	noname	-0.3939
4	O2    -0.3965     2.3009     0.7060	O.3	1	noname	-0.3939
5	H1     1.2964     1.3352     1.3594	H	1	noname	0.0587
6	H2     1.2126     1.6415    -0.3901	H	1	noname	0.0587
7	H3    -0.6355    -0.0377    -0.5955	H	1	noname	0.0587
8	H4    -0.5516    -0.3440     1.1540	H	1	noname	0.0587
9	H5     0.5890    -1.8545    -0.0687	H	1	noname	0.2101
10	H6     0.0720     3.1520     0.8326	H	1	noname	0.2101
@<TRIPOS>BOND
1	1	2	1
2	2	3	1
3	1	4	1
4	1	5	1
5	1	6	1
6	2	7	1
7	2	8	1
8	3	9	1
9	4	10	1
@<TRIPOS>SUBSTRUCTURE
1	noname	1
