@<TRIPOS>MOLECULE
MOL
   10    9    1    0    0
SMALL
bcc


@<TRIPOS>ATOM
   1   C1        0.6360    1.3470    0.4890   c3 1 MOL  0.1274
   2   C2        0.0250   -0.0490    0.2740   c3 1 MOL  0.1274
   3   O1        1.0580   -1.0030    0.0580   oh 1 MOL -0.6040
   4   O2       -0.3970    2.3010    0.7060   oh 1 MOL -0.6040
   5   H1        1.2960    1.3350    1.3590   h1 1 MOL  0.0357
   6   H2        1.2130    1.6410   -0.3900   h1 1 MOL  0.0357
   7   H3       -0.6350   -0.0380   -0.5960   h1 1 MOL  0.0357
   8   H4       -0.5520   -0.3440    1.1540   h1 1 MOL  0.0357
   9   H5        0.5890   -1.8550   -0.0690   ho 1 MOL  0.4050
  10   H6        0.0720    3.1520    0.8330   ho 1 MOL  0.4050
@<TRIPOS>BOND
    1     1     2  1
    2     2     3  1
    3     1     4  1
    4     1     5  1
    5     1     6  1
    6     2     7  1
    7     2     8  1
    8     3     9  1
    9     4    10  1
@<TRIPOS>SUBSTRUCTURE
1 MOL         1 TEMP              0 ****  ****    0 ROOT

@<TRIPOS>MOLECULE
MOL
   10    9    1    0    0
SMALL
bcc


@<TRIPOS>ATOM
   1   C1        0.6360    1.3470    0.4890   c3 1 MOL  0.1274
   2   C2        0.0250   -0.0490    0.2740   c3 1 MOL  0.1274
   3   O1        1.0580   -1.0030    0.0580   oh 1 MOL -0.6040
   4   O2       -0.3957    2.2969    0.7289   oh 1 MOL -0.6040
   5   H1        1.3097    1.3306    1.3483   h1 1 MOL  0.0357
   6   H2        1.1983    1.6485   -0.3970   h1 1 MOL  0.0357
   7   H3       -0.6350   -0.0380   -0.5960   h1 1 MOL  0.0357
   8   H4       -0.5520   -0.3440    1.1540   h1 1 MOL  0.0357
   9   H5        0.5890   -1.8550   -0.0690   ho 1 MOL  0.4050
  10   H6        0.0732    3.1482    0.8544   ho 1 MOL  0.4050
@<TRIPOS>BOND
    1     1     2  1
    2     2     3  1
    3     1     4  1
    4     1     5  1
    5     1     6  1
    6     2     7  1
    7     2     8  1
    8     3     9  1
    9     4    10  1
@<TRIPOS>SUBSTRUCTURE
1 MOL         1 TEMP              0 ****  ****    0 ROOT

@<TRIPOS>MOLECULE
MOL
   10    9    1    0    0
SMALL
bcc


@<TRIPOS>ATOM
   1   C1        0.6360    1.3470    0.4890   c3 1 MOL  0.1274
   2   C2        0.0250   -0.0490    0.2740   c3 1 MOL  0.1274
   3   O1        1.0580   -1.0030    0.0580   oh 1 MOL -0.6040
   4   O2       -0.3940    2.2926    0.7518   oh 1 MOL -0.6040
   5   H1        1.3233    1.3264    1.3374   h1 1 MOL  0.0357
   6   H2        1.1835    1.6560   -0.4036   h1 1 MOL  0.0357
   7   H3       -0.6350   -0.0380   -0.5960   h1 1 MOL  0.0357
   8   H4       -0.5520   -0.3440    1.1540   h1 1 MOL  0.0357
   9   H5        0.5890   -1.8550   -0.0690   ho 1 MOL  0.4050
  10   H6        0.0748    3.1442    0.8758   ho 1 MOL  0.4050
@<TRIPOS>BOND
    1     1     2  1
    2     2     3  1
    3     1     4  1
    4     1     5  1
    5     1     6  1
    6     2     7  1
    7     2     8  1
    8     3     9  1
    9     4    10  1
@<TRIPOS>SUBSTRUCTURE
1 MOL         1 TEMP              0 ****  ****    0 ROOT

@<TRIPOS>MOLECULE
MOL
   10    9    1    0    0
SMALL
bcc


@<TRIPOS>ATOM
   1   C1        0.6360    1.3470    0.4890   c3 1 MOL  0.1274
   2   C2        0.0250   -0.0490    0.2740   c3 1 MOL  0.1274
   3   O1        1.0580   -1.0030    0.0580   oh 1 MOL -0.6040
   4   O2       -0.3920    2.2882    0.7747   oh 1 MOL -0.6040
   5   H1        1.3367    1.3222    1.3263   h1 1 MOL  0.0357
   6   H2        1.1685    1.6635   -0.4100   h1 1 MOL  0.0357
   7   H3       -0.6350   -0.0380   -0.5960   h1 1 MOL  0.0357
   8   H4       -0.5520   -0.3440    1.1540   h1 1 MOL  0.0357
   9   H5        0.5890   -1.8550   -0.0690   ho 1 MOL  0.4050
  10   H6        0.0767    3.1401    0.8971   ho 1 MOL  0.4050
@<TRIPOS>BOND
    1     1     2  1
    2     2     3  1
    3     1     4  1
    4     1     5  1
    5     1     6  1
    6     2     7  1
    7     2     8  1
    8     3     9  1
    9     4    10  1
@<TRIPOS>SUBSTRUCTURE
1 MOL         1 TEMP              0 ****  ****    0 ROOT

@<TRIPOS>MOLECULE
MOL
   10    9    1    0    0
SMALL
bcc


@<TRIPOS>ATOM
   1   C1        0.6360    1.3470    0.4890   c3 1 MOL  0.1274
   2   C2        0.0250   -0.0490    0.2740   c3 1 MOL  0.1274
   3   O1        1.0580   -1.0030    0.0580   oh 1 MOL -0.6040
   4   O2       -0.3896    2.2837    0.7974   oh 1 MOL -0.6040
   5   H1        1.3499    1.3182    1.3149   h1 1 MOL  0.0357
   6   H2        1.1535    1.6711   -0.4161   h1 1 MOL  0.0357
   7   H3       -0.6350   -0.0380   -0.5960   h1 1 MOL  0.0357
   8   H4       -0.5520   -0.3440    1.1540   h1 1 MOL  0.0357
   9   H5        0.5890   -1.8550   -0.0690   ho 1 MOL  0.4050
  10   H6        0.0790    3.1358    0.9183   ho 1 MOL  0.4050
@<TRIPOS>BOND
    1     1     2  1
    2     2     3  1
    3     1     4  1
    4     1     5  1
    5     1     6  1
    6     2     7  1
    7     2     8  1
    8     3     9  1
    9     4    10  1
@<TRIPOS>SUBSTRUCTURE
1 MOL         1 TEMP              0 ****  ****    0 ROOT

@<TRIPOS>MOLECULE
MOL
   10    9    1    0    0
SMALL
bcc


@<TRIPOS>ATOM
   1   C1        0.6360    1.3470    0.4890   c3 1 MOL  0.1274
   2   C2        0.0250   -0.0490    0.2740   c3 1 MOL  0.1274
   3   O1        1.0580   -1.0030    0.0580   oh 1 MOL -0.6040
   4   O2       -0.3868    2.2790    0.8201   oh 1 MOL -0.6040
   5   H1        1.3630    1.3143    1.3033   h1 1 MOL  0.0357
   6   H2        1.1383    1.6786   -0.4219   h1 1 MOL  0.0357
   7   H3       -0.6350   -0.0380   -0.5960   h1 1 MOL  0.0357
   8   H4       -0.5520   -0.3440    1.1540   h1 1 MOL  0.0357
   9   H5        0.5890   -1.8550   -0.0690   ho 1 MOL  0.4050
  10   H6        0.0816    3.1314    0.9395   ho 1 MOL  0.4050
@<TRIPOS>BOND
    1     1     2  1
    2     2     3  1
    3     1     4  1
    4     1     5  1
    5     1     6  1
    6     2     7  1
    7     2     8  1
    8     3     9  1
    9     4    10  1
@<TRIPOS>SUBSTRUCTURE
1 MOL         1 TEMP              0 ****  ****    0 ROOT

@<TRIPOS>MOLECULE
MOL
   10    9    1    0    0
SMALL
bcc


@<TRIPOS>ATOM
   1   C1        0.6360    1.3470    0.4890   c3 1 MOL  0.1274
   2   C2        0.0250   -0.0490    0.2740   c3 1 MOL  0.1274
   3   O1        1.0580   -1.0030    0.0580   oh 1 MOL -0.6040
   4   O2       -0.3836    2.2741    0.8427   oh 1 MOL -0.6040
   5   H1        1.3759    1.3105    1.2914   h1 1 MOL  0.0357
   6   H2        1.1230    1.6861   -0.4274   h1 1 MOL  0.0357
   7   H3       -0.6350   -0.0380   -0.5960   h1 1 MOL  0.0357
   8   H4       -0.5520   -0.3440    1.1540   h1 1 MOL  0.0357
   9   H5        0.5890   -1.8550   -0.0690   ho 1 MOL  0.4050
  10   H6        0.0845    3.1269    0.9606   ho 1 MOL  0.4050
@<TRIPOS>BOND
    1     1     2  1
    2     2     3  1
    3     1     4  1
    4     1     5  1
    5     1     6  1
    6     2     7  1
    7     2     8  1
    8     3     9  1
    9     4    10  1
@<TRIPOS>SUBSTRUCTURE
1 MOL         1 TEMP              0 ****  ****    0 ROOT

@<TRIPOS>MOLECULE
MOL
   10    9    1    0    0
SMALL
bcc


@<TRIPOS>ATOM
   1   C1        0.6360    1.3470    0.4890   c3 1 MOL  0.1274
   2   C2        0.0250   -0.0490    0.2740   c3 1 MOL  0.1274
   3   O1        1.0580   -1.0030    0.0580   oh 1 MOL -0.6040
   4   O2       -0.3801    2.2691    0.8652   oh 1 MOL -0.6040
   5   H1        1.3886    1.3068    1.2794   h1 1 MOL  0.0357
   6   H2        1.1076    1.6937   -0.4326   h1 1 MOL  0.0357
   7   H3       -0.6350   -0.0380   -0.5960   h1 1 MOL  0.0357
   8   H4       -0.5520   -0.3440    1.1540   h1 1 MOL  0.0357
   9   H5        0.5890   -1.8550   -0.0690   ho 1 MOL  0.4050
  10   H6        0.0878    3.1222    0.9816   ho 1 MOL  0.4050
@<TRIPOS>BOND
    1     1     2  1
    2     2     3  1
    3     1     4  1
    4     1     5  1
    5     1     6  1
    6     2     7  1
    7     2     8  1
    8     3     9  1
    9     4    10  1
@<TRIPOS>SUBSTRUCTURE
1 MOL         1 TEMP              0 ****  ****    0 ROOT

@<TRIPOS>MOLECULE
MOL
   10    9    1    0    0
SMALL
bcc


@<TRIPOS>ATOM
   1   C1        0.6360    1.3470    0.4890   c3 1 MOL  0.1274
   2   C2        0.0250   -0.0490    0.2740   c3 1 MOL  0.1274
   3   O1        1.0580   -1.0030    0.0580   oh 1 MOL -0.6040
   4   O2       -0.3762    2.2639    0.8877   oh 1 MOL -0.6040
   5   H1        1.4011    1.3032    1.2671   h1 1 MOL  0.0357
   6   H2        1.0921    1.7012   -0.4375   h1 1 MOL  0.0357
   7   H3       -0.6350   -0.0380   -0.5960   h1 1 MOL  0.0357
   8   H4       -0.5520   -0.3440    1.1540   h1 1 MOL  0.0357
   9   H5        0.5890   -1.8550   -0.0690   ho 1 MOL  0.4050
  10   H6        0.0915    3.1174    1.0026   ho 1 MOL  0.4050
@<TRIPOS>BOND
    1     1     2  1
    2     2     3  1
    3     1     4  1
    4     1     5  1
    5     1     6  1
    6     2     7  1
    7     2     8  1
    8     3     9  1
    9     4    10  1
@<TRIPOS>SUBSTRUCTURE
1 MOL         1 TEMP              0 ****  ****    0 ROOT

@<TRIPOS>MOLECULE
MOL
   10    9    1    0    0
SMALL
bcc


@<TRIPOS>ATOM
   1   C1        0.6360    1.3470    0.4890   c3 1 MOL  0.1274
   2   C2        0.0250   -0.0490    0.2740   c3 1 MOL  0.1274
   3   O1        1.0580   -1.0030    0.0580   oh 1 MOL -0.6040
   4   O2       -0.3720    2.2586    0.9100   oh 1 MOL -0.6040
   5   H1        1.4134    1.2997    1.2545   h1 1 MOL  0.0357
   6   H2        1.0766    1.7087   -0.4422   h1 1 MOL  0.0357
   7   H3       -0.6350   -0.0380   -0.5960   h1 1 MOL  0.0357
   8   H4       -0.5520   -0.3440    1.1540   h1 1 MOL  0.0357
   9   H5        0.5890   -1.8550   -0.0690   ho 1 MOL  0.4050
  10   H6        0.0955    3.1124    1.0234   ho 1 MOL  0.4050
@<TRIPOS>BOND
    1     1     2  1
    2     2     3  1
    3     1     4  1
    4     1     5  1
    5     1     6  1
    6     2     7  1
    7     2     8  1
    8     3     9  1
    9     4    10  1
@<TRIPOS>SUBSTRUCTURE
1 MOL         1 TEMP              0 ****  ****    0 ROOT

@<TRIPOS>MOLECULE
MOL
   10    9    1    0    0
SMALL
bcc


@<TRIPOS>ATOM
   1   C1        0.6360    1.3470    0.4890   c3 1 MOL  0.1274
   2   C2        0.0250   -0.0490    0.2740   c3 1 MOL  0.1274
   3   O1        1.0580   -1.0030    0.0580   oh 1 MOL -0.6040
   4   O2       -0.3673    2.2532    0.9322   oh 1 MOL -0.6040
   5   H1        1.4256    1.2964    1.2418   h1 1 MOL  0.0357
   6   H2        1.0609    1.7163   -0.4465   h1 1 MOL  0.0357
   7   H3       -0.6350   -0.0380   -0.5960   h1 1 MOL  0.0357
   8   H4       -0.5520   -0.3440    1.1540   h1 1 MOL  0.0357
   9   H5        0.5890   -1.8550   -0.0690   ho 1 MOL  0.4050
  10   H6        0.0998    3.1073    1.0442   ho 1 MOL  0.4050
@<TRIPOS>BOND
    1     1     2  1
    2     2     3  1
    3     1     4  1
    4     1     5  1
    5     1     6  1
    6     2     7  1
    7     2     8  1
    8     3     9  1
    9     4    10  1
@<TRIPOS>SUBSTRUCTURE
1 MOL         1 TEMP              0 ****  ****    0 ROOT

@<TRIPOS>MOLECULE
MOL
   10    9    1    0    0
SMALL
bcc


@<TRIPOS>ATOM
   1   C1        0.6360    1.3470    0.4890   c3 1 MOL  0.1274
   2   C2        0.0250   -0.0490    0.2740   c3 1 MOL  0.1274
   3   O1        1.0580   -1.0030    0.0580   oh 1 MOL -0.6040
   4   O2       -0.3624    2.2476    0.9543   oh 1 MOL -0.6040
   5   H1        1.4375    1.2931    1.2288   h1 1 MOL  0.0357
   6   H2        1.0451    1.7238   -0.4505   h1 1 MOL  0.0357
   7   H3       -0.6350   -0.0380   -0.5960   h1 1 MOL  0.0357
   8   H4       -0.5520   -0.3440    1.1540   h1 1 MOL  0.0357
   9   H5        0.5890   -1.8550   -0.0690   ho 1 MOL  0.4050
  10   H6        0.1044    3.1021    1.0648   ho 1 MOL  0.4050
@<TRIPOS>BOND
    1     1     2  1
    2     2     3  1
    3     1     4  1
    4     1     5  1
    5     1     6  1
    6     2     7  1
    7     2     8  1
    8     3     9  1
    9     4    10  1
@<TRIPOS>SUBSTRUCTURE
1 MOL         1 TEMP              0 ****  ****    0 ROOT

@<TRIPOS>MOLECULE
MOL
   10    9    1    0    0
SMALL
bcc


@<TRIPOS>ATOM
   1   C1        0.6360    1.3470    0.4890   c3 1 MOL  0.1274
   2   C2        0.0250   -0.0490    0.2740   c3 1 MOL  0.1274
   3   O1        1.0580   -1.0030    0.0580   oh 1 MOL -0.6040
   4   O2       -0.3570    2.2419    0.9763   oh 1 MOL -0.6040
   5   H1        1.4492    1.2900    1.2157   h1 1 MOL  0.0357
   6   H2        1.0293    1.7313   -0.4542   h1 1 MOL  0.0357
   7   H3       -0.6350   -0.0380   -0.5960   h1 1 MOL  0.0357
   8   H4       -0.5520   -0.3440    1.1540   h1 1 MOL  0.0357
   9   H5        0.5890   -1.8550   -0.0690   ho 1 MOL  0.4050
  10   H6        0.1095    3.0967    1.0853   ho 1 MOL  0.4050
@<TRIPOS>BOND
    1     1     2  1
    2     2     3  1
    3     1     4  1
    4     1     5  1
    5     1     6  1
    6     2     7  1
    7     2     8  1
    8     3     9  1
    9     4    10  1
@<TRIPOS>SUBSTRUCTURE
1 MOL         1 TEMP              0 ****  ****    0 ROOT

@<TRIPOS>MOLECULE
MOL
   10    9    1    0    0
SMALL
bcc


@<TRIPOS>ATOM
   1   C1        0.6360    1.3470    0.4890   c3 1 MOL  0.1274
   2   C2        0.0250   -0.0490    0.2740   c3 1 MOL  0.1274
   3   O1        1.0580   -1.0030    0.0580   oh 1 MOL -0.6040
   4   O2       -0.3513    2.2360    0.9982   oh 1 MOL -0.6040
   5   H1        1.4608    1.2870    1.2023   h1 1 MOL  0.0357
   6   H2        1.0134    1.7388   -0.4576   h1 1 MOL  0.0357
   7   H3       -0.6350   -0.0380   -0.5960   h1 1 MOL  0.0357
   8   H4       -0.5520   -0.3440    1.1540   h1 1 MOL  0.0357
   9   H5        0.5890   -1.8550   -0.0690   ho 1 MOL  0.4050
  10   H6        0.1148    3.0913    1.1057   ho 1 MOL  0.4050
@<TRIPOS>BOND
    1     1     2  1
    2     2     3  1
    3     1     4  1
    4     1     5  1
    5     1     6  1
    6     2     7  1
    7     2     8  1
    8     3     9  1
    9     4    10  1
@<TRIPOS>SUBSTRUCTURE
1 MOL         1 TEMP              0 ****  ****    0 ROOT

@<TRIPOS>MOLECULE
MOL
   10    9    1    0    0
SMALL
bcc


@<TRIPOS>ATOM
   1   C1        0.6360    1.3470    0.4890   c3 1 MOL  0.1274
   2   C2        0.0250   -0.0490    0.2740   c3 1 MOL  0.1274
   3   O1        1.0580   -1.0030    0.0580   oh 1 MOL -0.6040
   4   O2       -0.3452    2.2300    1.0199   oh 1 MOL -0.6040
   5   H1        1.4721    1.2841    1.1887   h1 1 MOL  0.0357
   6   H2        0.9974    1.7462   -0.4607   h1 1 MOL  0.0357
   7   H3       -0.6350   -0.0380   -0.5960   h1 1 MOL  0.0357
   8   H4       -0.5520   -0.3440    1.1540   h1 1 MOL  0.0357
   9   H5        0.5890   -1.8550   -0.0690   ho 1 MOL  0.4050
  10   H6        0.1205    3.0857    1.1260   ho 1 MOL  0.4050
@<TRIPOS>BOND
    1     1     2  1
    2     2     3  1
    3     1     4  1
    4     1     5  1
    5     1     6  1
    6     2     7  1
    7     2     8  1
    8     3     9  1
    9     4    10  1
@<TRIPOS>SUBSTRUCTURE
1 MOL         1 TEMP              0 ****  ****    0 ROOT

@<TRIPOS>MOLECULE
MOL
   10    9    1    0    0
SMALL
bcc


@<TRIPOS>ATOM
   1   C1        0.6360    1.3470    0.4890   c3 1 MOL  0.1274
   2   C2        0.0250   -0.0490    0.2740   c3 1 MOL  0.1274
   3   O1        1.0580   -1.0030    0.0580   oh 1 MOL -0.6040
   4   O2       -0.3388    2.2239    1.0415   oh 1 MOL -0.6040
   5   H1        1.4832    1.2814    1.1749   h1 1 MOL  0.0357
   6   H2        0.9814    1.7537   -0.4635   h1 1 MOL  0.0357
   7   H3       -0.6350   -0.0380   -0.5960   h1 1 MOL  0.0357
   8   H4       -0.5520   -0.3440    1.1540   h1 1 MOL  0.0357
   9   H5        0.5890   -1.8550   -0.0690   ho 1 MOL  0.4050
  10   H6        0.1265    3.0799    1.1461   ho 1 MOL  0.4050
@<TRIPOS>BOND
    1     1     2  1
    2     2     3  1
    3     1     4  1
    4     1     5  1
    5     1     6  1
    6     2     7  1
    7     2     8  1
    8     3     9  1
    9     4    10  1
@<TRIPOS>SUBSTRUCTURE
1 MOL         1 TEMP              0 ****  ****    0 ROOT

@<TRIPOS>MOLECULE
MOL
   10    9    1    0    0
SMALL
bcc


@<TRIPOS>ATOM
   1   C1        0.6360    1.3470    0.4890   c3 1 MOL  0.1274
   2   C2        0.0250   -0.0490    0.2740   c3 1 MOL  0.1274
   3   O1        1.0580   -1.0030    0.0580   oh 1 MOL -0.6040
   4   O2       -0.3320    2.2176    1.0629   oh 1 MOL -0.6040
   5   H1        1.4942    1.2788    1.1610   h1 1 MOL  0.0357
   6   H2        0.9653    1.7611   -0.4660   h1 1 MOL  0.0357
   7   H3       -0.6350   -0.0380   -0.5960   h1 1 MOL  0.0357
   8   H4       -0.5520   -0.3440    1.1540   h1 1 MOL  0.0357
   9   H5        0.5890   -1.8550   -0.0690   ho 1 MOL  0.4050
  10   H6        0.1328    3.0741    1.1661   ho 1 MOL  0.4050
@<TRIPOS>BOND
    1     1     2  1
    2     2     3  1
    3     1     4  1
    4     1     5  1
    5     1     6  1
    6     2     7  1
    7     2     8  1
    8     3     9  1
    9     4    10  1
@<TRIPOS>SUBSTRUCTURE
1 MOL         1 TEMP              0 ****  ****    0 ROOT

@<TRIPOS>MOLECULE
MOL
   10    9    1    0    0
SMALL
bcc


@<TRIPOS>ATOM
   1   C1        0.6360    1.3470    0.4890   c3 1 MOL  0.1274
   2   C2        0.0250   -0.0490    0.2740   c3 1 MOL  0.1274
   3   O1        1.0580   -1.0030    0.0580   oh 1 MOL -0.6040
   4   O2       -0.3249    2.2112    1.0842   oh 1 MOL -0.6040
   5   H1        1.5049    1.2763    1.1468   h1 1 MOL  0.0357
   6   H2        0.9491    1.7685   -0.4682   h1 1 MOL  0.0357
   7   H3       -0.6350   -0.0380   -0.5960   h1 1 MOL  0.0357
   8   H4       -0.5520   -0.3440    1.1540   h1 1 MOL  0.0357
   9   H5        0.5890   -1.8550   -0.0690   ho 1 MOL  0.4050
  10   H6        0.1395    3.0681    1.1860   ho 1 MOL  0.4050
@<TRIPOS>BOND
    1     1     2  1
    2     2     3  1
    3     1     4  1
    4     1     5  1
    5     1     6  1
    6     2     7  1
    7     2     8  1
    8     3     9  1
    9     4    10  1
@<TRIPOS>SUBSTRUCTURE
1 MOL         1 TEMP              0 ****  ****    0 ROOT

@<TRIPOS>MOLECULE
MOL
   10    9    1    0    0
SMALL
bcc


@<TRIPOS>ATOM
   1   C1        0.6360    1.3470    0.4890   c3 1 MOL  0.1274
   2   C2        0.0250   -0.0490    0.2740   c3 1 MOL  0.1274
   3   O1        1.0580   -1.0030    0.0580   oh 1 MOL -0.6040
   4   O2       -0.3174    2.2046    1.1053   oh 1 MOL -0.6040
   5   H1        1.5153    1.2739    1.1325   h1 1 MOL  0.0357
   6   H2        0.9329    1.7759   -0.4701   h1 1 MOL  0.0357
   7   H3       -0.6350   -0.0380   -0.5960   h1 1 MOL  0.0357
   8   H4       -0.5520   -0.3440    1.1540   h1 1 MOL  0.0357
   9   H5        0.5890   -1.8550   -0.0690   ho 1 MOL  0.4050
  10   H6        0.1465    3.0620    1.2057   ho 1 MOL  0.4050
@<TRIPOS>BOND
    1     1     2  1
    2     2     3  1
    3     1     4  1
    4     1     5  1
    5     1     6  1
    6     2     7  1
    7     2     8  1
    8     3     9  1
    9     4    10  1
@<TRIPOS>SUBSTRUCTURE
1 MOL         1 TEMP              0 ****  ****    0 ROOT

@<TRIPOS>MOLECULE
MOL
   10    9    1    0    0
SMALL
bcc


@<TRIPOS>ATOM
   1   C1        0.6360    1.3470    0.4890   c3 1 MOL  0.1274
   2   C2        0.0250   -0.0490    0.2740   c3 1 MOL  0.1274
   3   O1        1.0580   -1.0030    0.0580   oh 1 MOL -0.6040
   4   O2       -0.3095    2.1980    1.1263   oh 1 MOL -0.6040
   5   H1        1.5256    1.2716    1.1180   h1 1 MOL  0.0357
   6   H2        0.9167    1.7833   -0.4717   h1 1 MOL  0.0357
   7   H3       -0.6350   -0.0380   -0.5960   h1 1 MOL  0.0357
   8   H4       -0.5520   -0.3440    1.1540   h1 1 MOL  0.0357
   9   H5        0.5890   -1.8550   -0.0690   ho 1 MOL  0.4050
  10   H6        0.1538    3.0558    1.2253   ho 1 MOL  0.4050
@<TRIPOS>BOND
    1     1     2  1
    2     2     3  1
    3     1     4  1
    4     1     5  1
    5     1     6  1
    6     2     7  1
    7     2     8  1
    8     3     9  1
    9     4    10  1
@<TRIPOS>SUBSTRUCTURE
1 MOL         1 TEMP              0 ****  ****    0 ROOT

@<TRIPOS>MOLECULE
MOL
   10    9    1    0    0
SMALL
bcc


@<TRIPOS>ATOM
   1   C1        0.6360    1.3470    0.4890   c3 1 MOL  0.1274
   2   C2        0.0250   -0.0490    0.2740   c3 1 MOL  0.1274
   3   O1        1.0580   -1.0030    0.0580   oh 1 MOL -0.6040
   4   O2       -0.3013    2.1912    1.1470   oh 1 MOL -0.6040
   5   H1        1.5356    1.2695    1.1033   h1 1 MOL  0.0357
   6   H2        0.9004    1.7906   -0.4729   h1 1 MOL  0.0357
   7   H3       -0.6350   -0.0380   -0.5960   h1 1 MOL  0.0357
   8   H4       -0.5520   -0.3440    1.1540   h1 1 MOL  0.0357
   9   H5        0.5890   -1.8550   -0.0690   ho 1 MOL  0.4050
  10   H6        0.1615    3.0494    1.2447   ho 1 MOL  0.4050
@<TRIPOS>BOND
    1     1     2  1
    2     2     3  1
    3     1     4  1
    4     1     5  1
    5     1     6  1
    6     2     7  1
    7     2     8  1
    8     3     9  1
    9     4    10  1
@<TRIPOS>SUBSTRUCTURE
1 MOL         1 TEMP              0 ****  ****    0 ROOT

@<TRIPOS>MOLECULE
MOL
   10    9    1    0    0
SMALL
bcc


@<TRIPOS>ATOM
   1   C1        0.6360    1.3470    0.4890   c3 1 MOL  0.1274
   2   C2        0.0250   -0.0490    0.2740   c3 1 MOL  0.1274
   3   O1        1.0580   -1.0030    0.0580   oh 1 MOL -0.6040
   4   O2       -0.2928    2.1843    1.1676   oh 1 MOL -0.6040
   5   H1        1.5454    1.2675    1.0884   h1 1 MOL  0.0357
   6   H2        0.8840    1.7979   -0.4739   h1 1 MOL  0.0357
   7   H3       -0.6350   -0.0380   -0.5960   h1 1 MOL  0.0357
   8   H4       -0.5520   -0.3440    1.1540   h1 1 MOL  0.0357
   9   H5        0.5890   -1.8550   -0.0690   ho 1 MOL  0.4050
  10   H6        0.1695    3.0430    1.2639   ho 1 MOL  0.4050
@<TRIPOS>BOND
    1     1     2  1
    2     2     3  1
    3     1     4  1
    4     1     5  1
    5     1     6  1
    6     2     7  1
    7     2     8  1
    8     3     9  1
    9     4    10  1
@<TRIPOS>SUBSTRUCTURE
1 MOL         1 TEMP              0 ****  ****    0 ROOT

@<TRIPOS>MOLECULE
MOL
   10    9    1    0    0
SMALL
bcc


@<TRIPOS>ATOM
   1   C1        0.6360    1.3470    0.4890   c3 1 MOL  0.1274
   2   C2        0.0250   -0.0490    0.2740   c3 1 MOL  0.1274
   3   O1        1.0580   -1.0030    0.0580   oh 1 MOL -0.6040
   4   O2       -0.2839    2.1773    1.1880   oh 1 MOL -0.6040
   5   H1        1.5550    1.2656    1.0734   h1 1 MOL  0.0357
   6   H2        0.8677    1.8052   -0.4745   h1 1 MOL  0.0357
   7   H3       -0.6350   -0.0380   -0.5960   h1 1 MOL  0.0357
   8   H4       -0.5520   -0.3440    1.1540   h1 1 MOL  0.0357
   9   H5        0.5890   -1.8550   -0.0690   ho 1 MOL  0.4050
  10   H6        0.1777    3.0364    1.2829   ho 1 MOL  0.4050
@<TRIPOS>BOND
    1     1     2  1
    2     2     3  1
    3     1     4  1
    4     1     5  1
    5     1     6  1
    6     2     7  1
    7     2     8  1
    8     3     9  1
    9     4    10  1
@<TRIPOS>SUBSTRUCTURE
1 MOL         1 TEMP              0 ****  ****    0 ROOT

@<TRIPOS>MOLECULE
MOL
   10    9    1    0    0
SMALL
bcc


@<TRIPOS>ATOM
   1   C1        0.6360    1.3470    0.4890   c3 1 MOL  0.1274
   2   C2        0.0250   -0.0490    0.2740   c3 1 MOL  0.1274
   3   O1        1.0580   -1.0030    0.0580   oh 1 MOL -0.6040
   4   O2       -0.2747    2.1701    1.2083   oh 1 MOL -0.6040
   5   H1        1.5643    1.2639    1.0582   h1 1 MOL  0.0357
   6   H2        0.8513    1.8124   -0.4749   h1 1 MOL  0.0357
   7   H3       -0.6350   -0.0380   -0.5960   h1 1 MOL  0.0357
   8   H4       -0.5520   -0.3440    1.1540   h1 1 MOL  0.0357
   9   H5        0.5890   -1.8550   -0.0690   ho 1 MOL  0.4050
  10   H6        0.1864    3.0297    1.3018   ho 1 MOL  0.4050
@<TRIPOS>BOND
    1     1     2  1
    2     2     3  1
    3     1     4  1
    4     1     5  1
    5     1     6  1
    6     2     7  1
    7     2     8  1
    8     3     9  1
    9     4    10  1
@<TRIPOS>SUBSTRUCTURE
1 MOL         1 TEMP              0 ****  ****    0 ROOT

@<TRIPOS>MOLECULE
MOL
   10    9    1    0    0
SMALL
bcc


@<TRIPOS>ATOM
   1   C1        0.6360    1.3470    0.4890   c3 1 MOL  0.1274
   2   C2        0.0250   -0.0490    0.2740   c3 1 MOL  0.1274
   3   O1        1.0580   -1.0030    0.0580   oh 1 MOL -0.6040
   4   O2       -0.2652    2.1629    1.2283   oh 1 MOL -0.6040
   5   H1        1.5734    1.2623    1.0428   h1 1 MOL  0.0357
   6   H2        0.8349    1.8196   -0.4749   h1 1 MOL  0.0357
   7   H3       -0.6350   -0.0380   -0.5960   h1 1 MOL  0.0357
   8   H4       -0.5520   -0.3440    1.1540   h1 1 MOL  0.0357
   9   H5        0.5890   -1.8550   -0.0690   ho 1 MOL  0.4050
  10   H6        0.1953    3.0230    1.3205   ho 1 MOL  0.4050
@<TRIPOS>BOND
    1     1     2  1
    2     2     3  1
    3     1     4  1
    4     1     5  1
    5     1     6  1
    6     2     7  1
    7     2     8  1
    8     3     9  1
    9     4    10  1
@<TRIPOS>SUBSTRUCTURE
1 MOL         1 TEMP              0 ****  ****    0 ROOT

@<TRIPOS>MOLECULE
MOL
   10    9    1    0    0
SMALL
bcc


@<TRIPOS>ATOM
   1   C1        0.6360    1.3470    0.4890   c3 1 MOL  0.1274
   2   C2        0.0250   -0.0490    0.2740   c3 1 MOL  0.1274
   3   O1        1.0580   -1.0030    0.0580   oh 1 MOL -0.6040
   4   O2       -0.2553    2.1555    1.2481   oh 1 MOL -0.6040
   5   H1        1.5823    1.2608    1.0273   h1 1 MOL  0.0357
   6   H2        0.8185    1.8267   -0.4746   h1 1 MOL  0.0357
   7   H3       -0.6350   -0.0380   -0.5960   h1 1 MOL  0.0357
   8   H4       -0.5520   -0.3440    1.1540   h1 1 MOL  0.0357
   9   H5        0.5890   -1.8550   -0.0690   ho 1 MOL  0.4050
  10   H6        0.2045    3.0161    1.3390   ho 1 MOL  0.4050
@<TRIPOS>BOND
    1     1     2  1
    2     2     3  1
    3     1     4  1
    4     1     5  1
    5     1     6  1
    6     2     7  1
    7     2     8  1
    8     3     9  1
    9     4    10  1
@<TRIPOS>SUBSTRUCTURE
1 MOL         1 TEMP              0 ****  ****    0 ROOT

@<TRIPOS>MOLECULE
MOL
   10    9    1    0    0
SMALL
bcc


@<TRIPOS>ATOM
   1   C1        0.6360    1.3470    0.4890   c3 1 MOL  0.1274
   2   C2        0.0250   -0.0490    0.2740   c3 1 MOL  0.1274
   3   O1        1.0580   -1.0030    0.0580   oh 1 MOL -0.6040
   4   O2       -0.2451    2.1480    1.2677   oh 1 MOL -0.6040
   5   H1        1.5909    1.2594    1.0117   h1 1 MOL  0.0357
   6   H2        0.8020    1.8338   -0.4740   h1 1 MOL  0.0357
   7   H3       -0.6350   -0.0380   -0.5960   h1 1 MOL  0.0357
   8   H4       -0.5520   -0.3440    1.1540   h1 1 MOL  0.0357
   9   H5        0.5890   -1.8550   -0.0690   ho 1 MOL  0.4050
  10   H6        0.2141    3.0091    1.3573   ho 1 MOL  0.4050
@<TRIPOS>BOND
    1     1     2  1
    2     2     3  1
    3     1     4  1
    4     1     5  1
    5     1     6  1
    6     2     7  1
    7     2     8  1
    8     3     9  1
    9     4    10  1
@<TRIPOS>SUBSTRUCTURE
1 MOL         1 TEMP              0 ****  ****    0 ROOT

@<TRIPOS>MOLECULE
MOL
   10    9    1    0    0
SMALL
bcc


@<TRIPOS>ATOM
   1   C1        0.6360    1.3470    0.4890   c3 1 MOL  0.1274
   2   C2        0.0250   -0.0490    0.2740   c3 1 MOL  0.1274
   3   O1        1.0580   -1.0030    0.0580   oh 1 MOL -0.6040
   4   O2       -0.2345    2.1404    1.2871   oh 1 MOL -0.6040
   5   H1        1.5992    1.2582    0.9959   h1 1 MOL  0.0357
   6   H2        0.7856    1.8409   -0.4731   h1 1 MOL  0.0357
   7   H3       -0.6350   -0.0380   -0.5960   h1 1 MOL  0.0357
   8   H4       -0.5520   -0.3440    1.1540   h1 1 MOL  0.0357
   9   H5        0.5890   -1.8550   -0.0690   ho 1 MOL  0.4050
  10   H6        0.2239    3.0020    1.3754   ho 1 MOL  0.4050
@<TRIPOS>BOND
    1     1     2  1
    2     2     3  1
    3     1     4  1
    4     1     5  1
    5     1     6  1
    6     2     7  1
    7     2     8  1
    8     3     9  1
    9     4    10  1
@<TRIPOS>SUBSTRUCTURE
1 MOL         1 TEMP              0 ****  ****    0 ROOT

@<TRIPOS>MOLECULE
MOL
   10    9    1    0    0
SMALL
bcc


@<TRIPOS>ATOM
   1   C1        0.6360    1.3470    0.4890   c3 1 MOL  0.1274
   2   C2        0.0250   -0.0490    0.2740   c3 1 MOL  0.1274
   3   O1        1.0580   -1.0030    0.0580   oh 1 MOL -0.6040
   4   O2       -0.2237    2.1327    1.3063   oh 1 MOL -0.6040
   5   H1        1.6074    1.2571    0.9800   h1 1 MOL  0.0357
   6   H2        0.7692    1.8479   -0.4719   h1 1 MOL  0.0357
   7   H3       -0.6350   -0.0380   -0.5960   h1 1 MOL  0.0357
   8   H4       -0.5520   -0.3440    1.1540   h1 1 MOL  0.0357
   9   H5        0.5890   -1.8550   -0.0690   ho 1 MOL  0.4050
  10   H6        0.2340    2.9948    1.3933   ho 1 MOL  0.4050
@<TRIPOS>BOND
    1     1     2  1
    2     2     3  1
    3     1     4  1
    4     1     5  1
    5     1     6  1
    6     2     7  1
    7     2     8  1
    8     3     9  1
    9     4    10  1
@<TRIPOS>SUBSTRUCTURE
1 MOL         1 TEMP              0 ****  ****    0 ROOT

@<TRIPOS>MOLECULE
MOL
   10    9    1    0    0
SMALL
bcc


@<TRIPOS>ATOM
   1   C1        0.6360    1.3470    0.4890   c3 1 MOL  0.1274
   2   C2        0.0250   -0.0490    0.2740   c3 1 MOL  0.1274
   3   O1        1.0580   -1.0030    0.0580   oh 1 MOL -0.6040
   4   O2       -0.2125    2.1249    1.3252   oh 1 MOL -0.6040
   5   H1        1.6152    1.2561    0.9639   h1 1 MOL  0.0357
   6   H2        0.7527    1.8548   -0.4704   h1 1 MOL  0.0357
   7   H3       -0.6350   -0.0380   -0.5960   h1 1 MOL  0.0357
   8   H4       -0.5520   -0.3440    1.1540   h1 1 MOL  0.0357
   9   H5        0.5890   -1.8550   -0.0690   ho 1 MOL  0.4050
  10   H6        0.2445    2.9875    1.4109   ho 1 MOL  0.4050
@<TRIPOS>BOND
    1     1     2  1
    2     2     3  1
    3     1     4  1
    4     1     5  1
    5     1     6  1
    6     2     7  1
    7     2     8  1
    8     3     9  1
    9     4    10  1
@<TRIPOS>SUBSTRUCTURE
1 MOL         1 TEMP              0 ****  ****    0 ROOT

@<TRIPOS>MOLECULE
MOL
   10    9    1    0    0
SMALL
bcc


@<TRIPOS>ATOM
   1   C1        0.6360    1.3470    0.4890   c3 1 MOL  0.1274
   2   C2        0.0250   -0.0490    0.2740   c3 1 MOL  0.1274
   3   O1        1.0580   -1.0030    0.0580   oh 1 MOL -0.6040
   4   O2       -0.2010    2.1170    1.3439   oh 1 MOL -0.6040
   5   H1        1.6228    1.2553    0.9477   h1 1 MOL  0.0357
   6   H2        0.7363    1.8617   -0.4686   h1 1 MOL  0.0357
   7   H3       -0.6350   -0.0380   -0.5960   h1 1 MOL  0.0357
   8   H4       -0.5520   -0.3440    1.1540   h1 1 MOL  0.0357
   9   H5        0.5890   -1.8550   -0.0690   ho 1 MOL  0.4050
  10   H6        0.2552    2.9801    1.4284   ho 1 MOL  0.4050
@<TRIPOS>BOND
    1     1     2  1
    2     2     3  1
    3     1     4  1
    4     1     5  1
    5     1     6  1
    6     2     7  1
    7     2     8  1
    8     3     9  1
    9     4    10  1
@<TRIPOS>SUBSTRUCTURE
1 MOL         1 TEMP              0 ****  ****    0 ROOT

@<TRIPOS>MOLECULE
MOL
   10    9    1    0    0
SMALL
bcc


@<TRIPOS>ATOM
   1   C1        0.6360    1.3470    0.4890   c3 1 MOL  0.1274
   2   C2        0.0250   -0.0490    0.2740   c3 1 MOL  0.1274
   3   O1        1.0580   -1.0030    0.0580   oh 1 MOL -0.6040
   4   O2       -0.1892    2.1090    1.3624   oh 1 MOL -0.6040
   5   H1        1.6302    1.2546    0.9314   h1 1 MOL  0.0357
   6   H2        0.7199    1.8686   -0.4665   h1 1 MOL  0.0357
   7   H3       -0.6350   -0.0380   -0.5960   h1 1 MOL  0.0357
   8   H4       -0.5520   -0.3440    1.1540   h1 1 MOL  0.0357
   9   H5        0.5890   -1.8550   -0.0690   ho 1 MOL  0.4050
  10   H6        0.2663    2.9726    1.4456   ho 1 MOL  0.4050
@<TRIPOS>BOND
    1     1     2  1
    2     2     3  1
    3     1     4  1
    4     1     5  1
    5     1     6  1
    6     2     7  1
    7     2     8  1
    8     3     9  1
    9     4    10  1
@<TRIPOS>SUBSTRUCTURE
1 MOL         1 TEMP              0 ****  ****    0 ROOT

@<TRIPOS>MOLECULE
MOL
   10    9    1    0    0
SMALL
bcc


@<TRIPOS>ATOM
   1   C1        0.6360    1.3470    0.4890   c3 1 MOL  0.1274
   2   C2        0.0250   -0.0490    0.2740   c3 1 MOL  0.1274
   3   O1        1.0580   -1.0030    0.0580   oh 1 MOL -0.6040
   4   O2       -0.1771    2.1008    1.3806   oh 1 MOL -0.6040
   5   H1        1.6373    1.2540    0.9149   h1 1 MOL  0.0357
   6   H2        0.7035    1.8754   -0.4640   h1 1 MOL  0.0357
   7   H3       -0.6350   -0.0380   -0.5960   h1 1 MOL  0.0357
   8   H4       -0.5520   -0.3440    1.1540   h1 1 MOL  0.0357
   9   H5        0.5890   -1.8550   -0.0690   ho 1 MOL  0.4050
  10   H6        0.2776    2.9650    1.4626   ho 1 MOL  0.4050
@<TRIPOS>BOND
    1     1     2  1
    2     2     3  1
    3     1     4  1
    4     1     5  1
    5     1     6  1
    6     2     7  1
    7     2     8  1
    8     3     9  1
    9     4    10  1
@<TRIPOS>SUBSTRUCTURE
1 MOL         1 TEMP              0 ****  ****    0 ROOT

@<TRIPOS>MOLECULE
MOL
   10    9    1    0    0
SMALL
bcc


@<TRIPOS>ATOM
   1   C1        0.6360    1.3470    0.4890   c3 1 MOL  0.1274
   2   C2        0.0250   -0.0490    0.2740   c3 1 MOL  0.1274
   3   O1        1.0580   -1.0030    0.0580   oh 1 MOL -0.6040
   4   O2       -0.1646    2.0926    1.3986   oh 1 MOL -0.6040
   5   H1        1.6441    1.2536    0.8984   h1 1 MOL  0.0357
   6   H2        0.6872    1.8821   -0.4613   h1 1 MOL  0.0357
   7   H3       -0.6350   -0.0380   -0.5960   h1 1 MOL  0.0357
   8   H4       -0.5520   -0.3440    1.1540   h1 1 MOL  0.0357
   9   H5        0.5890   -1.8550   -0.0690   ho 1 MOL  0.4050
  10   H6        0.2892    2.9574    1.4794   ho 1 MOL  0.4050
@<TRIPOS>BOND
    1     1     2  1
    2     2     3  1
    3     1     4  1
    4     1     5  1
    5     1     6  1
    6     2     7  1
    7     2     8  1
    8     3     9  1
    9     4    10  1
@<TRIPOS>SUBSTRUCTURE
1 MOL         1 TEMP              0 ****  ****    0 ROOT

@<TRIPOS>MOLECULE
MOL
   10    9    1    0    0
SMALL
bcc


@<TRIPOS>ATOM
   1   C1        0.6360    1.3470    0.4890   c3 1 MOL  0.1274
   2   C2        0.0250   -0.0490    0.2740   c3 1 MOL  0.1274
   3   O1        1.0580   -1.0030    0.0580   oh 1 MOL -0.6040
   4   O2       -0.1519    2.0843    1.4163   oh 1 MOL -0.6040
   5   H1        1.6507    1.2533    0.8817   h1 1 MOL  0.0357
   6   H2        0.6708    1.8888   -0.4582   h1 1 MOL  0.0357
   7   H3       -0.6350   -0.0380   -0.5960   h1 1 MOL  0.0357
   8   H4       -0.5520   -0.3440    1.1540   h1 1 MOL  0.0357
   9   H5        0.5890   -1.8550   -0.0690   ho 1 MOL  0.4050
  10   H6        0.3011    2.9496    1.4959   ho 1 MOL  0.4050
@<TRIPOS>BOND
    1     1     2  1
    2     2     3  1
    3     1     4  1
    4     1     5  1
    5     1     6  1
    6     2     7  1
    7     2     8  1
    8     3     9  1
    9     4    10  1
@<TRIPOS>SUBSTRUCTURE
1 MOL         1 TEMP              0 ****  ****    0 ROOT

@<TRIPOS>MOLECULE
MOL
   10    9    1    0    0
SMALL
bcc


@<TRIPOS>ATOM
   1   C1        0.6360    1.3470    0.4890   c3 1 MOL  0.1274
   2   C2        0.0250   -0.0490    0.2740   c3 1 MOL  0.1274
   3   O1        1.0580   -1.0030    0.0580   oh 1 MOL -0.6040
   4   O2       -0.1389    2.0759    1.4337   oh 1 MOL -0.6040
   5   H1        1.6570    1.2531    0.8649   h1 1 MOL  0.0357
   6   H2        0.6545    1.8954   -0.4549   h1 1 MOL  0.0357
   7   H3       -0.6350   -0.0380   -0.5960   h1 1 MOL  0.0357
   8   H4       -0.5520   -0.3440    1.1540   h1 1 MOL  0.0357
   9   H5        0.5890   -1.8550   -0.0690   ho 1 MOL  0.4050
  10   H6        0.3133    2.9418    1.5122   ho 1 MOL  0.4050
@<TRIPOS>BOND
    1     1     2  1
    2     2     3  1
    3     1     4  1
    4     1     5  1
    5     1     6  1
    6     2     7  1
    7     2     8  1
    8     3     9  1
    9     4    10  1
@<TRIPOS>SUBSTRUCTURE
1 MOL         1 TEMP              0 ****  ****    0 ROOT

@<TRIPOS>MOLECULE
MOL
   10    9    1    0    0
SMALL
bcc


@<TRIPOS>ATOM
   1   C1        0.6360    1.3470    0.4890   c3 1 MOL  0.1274
   2   C2        0.0250   -0.0490    0.2740   c3 1 MOL  0.1274
   3   O1        1.0580   -1.0030    0.0580   oh 1 MOL -0.6040
   4   O2       -0.1255    2.0675    1.4509   oh 1 MOL -0.6040
   5   H1        1.6631    1.2530    0.8481   h1 1 MOL  0.0357
   6   H2        0.6383    1.9020   -0.4512   h1 1 MOL  0.0357
   7   H3       -0.6350   -0.0380   -0.5960   h1 1 MOL  0.0357
   8   H4       -0.5520   -0.3440    1.1540   h1 1 MOL  0.0357
   9   H5        0.5890   -1.8550   -0.0690   ho 1 MOL  0.4050
  10   H6        0.3257    2.9339    1.5282   ho 1 MOL  0.4050
@<TRIPOS>BOND
    1     1     2  1
    2     2     3  1
    3     1     4  1
    4     1     5  1
    5     1     6  1
    6     2     7  1
    7     2     8  1
    8     3     9  1
    9     4    10  1
@<TRIPOS>SUBSTRUCTURE
1 MOL         1 TEMP              0 ****  ****    0 ROOT

@<TRIPOS>MOLECULE
MOL
   10    9    1    0    0
SMALL
bcc


@<TRIPOS>ATOM
   1   C1        0.6360    1.3470    0.4890   c3 1 MOL  0.1274
   2   C2        0.0250   -0.0490    0.2740   c3 1 MOL  0.1274
   3   O1        1.0580   -1.0030    0.0580   oh 1 MOL -0.6040
   4   O2       -0.1119    2.0589    1.4678   oh 1 MOL -0.6040
   5   H1        1.6689    1.2531    0.8311   h1 1 MOL  0.0357
   6   H2        0.6221    1.9085   -0.4473   h1 1 MOL  0.0357
   7   H3       -0.6350   -0.0380   -0.5960   h1 1 MOL  0.0357
   8   H4       -0.5520   -0.3440    1.1540   h1 1 MOL  0.0357
   9   H5        0.5890   -1.8550   -0.0690   ho 1 MOL  0.4050
  10   H6        0.3384    2.9259    1.5440   ho 1 MOL  0.4050
@<TRIPOS>BOND
    1     1     2  1
    2     2     3  1
    3     1     4  1
    4     1     5  1
    5     1     6  1
    6     2     7  1
    7     2     8  1
    8     3     9  1
    9     4    10  1
@<TRIPOS>SUBSTRUCTURE
1 MOL         1 TEMP              0 ****  ****    0 ROOT

@<TRIPOS>MOLECULE
MOL
   10    9    1    0    0
SMALL
bcc


@<TRIPOS>ATOM
   1   C1        0.6360    1.3470    0.4890   c3 1 MOL  0.1274
   2   C2        0.0250   -0.0490    0.2740   c3 1 MOL  0.1274
   3   O1        1.0580   -1.0030    0.0580   oh 1 MOL -0.6040
   4   O2       -0.0980    2.0502    1.4845   oh 1 MOL -0.6040
   5   H1        1.6744    1.2533    0.8141   h1 1 MOL  0.0357
   6   H2        0.6059    1.9149   -0.4430   h1 1 MOL  0.0357
   7   H3       -0.6350   -0.0380   -0.5960   h1 1 MOL  0.0357
   8   H4       -0.5520   -0.3440    1.1540   h1 1 MOL  0.0357
   9   H5        0.5890   -1.8550   -0.0690   ho 1 MOL  0.4050
  10   H6        0.3514    2.9178    1.5595   ho 1 MOL  0.4050
@<TRIPOS>BOND
    1     1     2  1
    2     2     3  1
    3     1     4  1
    4     1     5  1
    5     1     6  1
    6     2     7  1
    7     2     8  1
    8     3     9  1
    9     4    10  1
@<TRIPOS>SUBSTRUCTURE
1 MOL         1 TEMP              0 ****  ****    0 ROOT

@<TRIPOS>MOLECULE
MOL
   10    9    1    0    0
SMALL
bcc


@<TRIPOS>ATOM
   1   C1        0.6360    1.3470    0.4890   c3 1 MOL  0.1274
   2   C2        0.0250   -0.0490    0.2740   c3 1 MOL  0.1274
   3   O1        1.0580   -1.0030    0.0580   oh 1 MOL -0.6040
   4   O2       -0.0838    2.0415    1.5008   oh 1 MOL -0.6040
   5   H1        1.6796    1.2537    0.7970   h1 1 MOL  0.0357
   6   H2        0.5898    1.9212   -0.4384   h1 1 MOL  0.0357
   7   H3       -0.6350   -0.0380   -0.5960   h1 1 MOL  0.0357
   8   H4       -0.5520   -0.3440    1.1540   h1 1 MOL  0.0357
   9   H5        0.5890   -1.8550   -0.0690   ho 1 MOL  0.4050
  10   H6        0.3647    2.9097    1.5748   ho 1 MOL  0.4050
@<TRIPOS>BOND
    1     1     2  1
    2     2     3  1
    3     1     4  1
    4     1     5  1
    5     1     6  1
    6     2     7  1
    7     2     8  1
    8     3     9  1
    9     4    10  1
@<TRIPOS>SUBSTRUCTURE
1 MOL         1 TEMP              0 ****  ****    0 ROOT

@<TRIPOS>MOLECULE
MOL
   10    9    1    0    0
SMALL
bcc


@<TRIPOS>ATOM
   1   C1        0.6360    1.3470    0.4890   c3 1 MOL  0.1274
   2   C2        0.0250   -0.0490    0.2740   c3 1 MOL  0.1274
   3   O1        1.0580   -1.0030    0.0580   oh 1 MOL -0.6040
   4   O2       -0.0694    2.0327    1.5169   oh 1 MOL -0.6040
   5   H1        1.6846    1.2541    0.7797   h1 1 MOL  0.0357
   6   H2        0.5737    1.9275   -0.4336   h1 1 MOL  0.0357
   7   H3       -0.6350   -0.0380   -0.5960   h1 1 MOL  0.0357
   8   H4       -0.5520   -0.3440    1.1540   h1 1 MOL  0.0357
   9   H5        0.5890   -1.8550   -0.0690   ho 1 MOL  0.4050
  10   H6        0.3782    2.9014    1.5898   ho 1 MOL  0.4050
@<TRIPOS>BOND
    1     1     2  1
    2     2     3  1
    3     1     4  1
    4     1     5  1
    5     1     6  1
    6     2     7  1
    7     2     8  1
    8     3     9  1
    9     4    10  1
@<TRIPOS>SUBSTRUCTURE
1 MOL         1 TEMP              0 ****  ****    0 ROOT

@<TRIPOS>MOLECULE
MOL
   10    9    1    0    0
SMALL
bcc


@<TRIPOS>ATOM
   1   C1        0.6360    1.3470    0.4890   c3 1 MOL  0.1274
   2   C2        0.0250   -0.0490    0.2740   c3 1 MOL  0.1274
   3   O1        1.0580   -1.0030    0.0580   oh 1 MOL -0.6040
   4   O2       -0.0546    2.0238    1.5327   oh 1 MOL -0.6040
   5   H1        1.6893    1.2548    0.7625   h1 1 MOL  0.0357
   6   H2        0.5577    1.9337   -0.4284   h1 1 MOL  0.0357
   7   H3       -0.6350   -0.0380   -0.5960   h1 1 MOL  0.0357
   8   H4       -0.5520   -0.3440    1.1540   h1 1 MOL  0.0357
   9   H5        0.5890   -1.8550   -0.0690   ho 1 MOL  0.4050
  10   H6        0.3920    2.8931    1.6045   ho 1 MOL  0.4050
@<TRIPOS>BOND
    1     1     2  1
    2     2     3  1
    3     1     4  1
    4     1     5  1
    5     1     6  1
    6     2     7  1
    7     2     8  1
    8     3     9  1
    9     4    10  1
@<TRIPOS>SUBSTRUCTURE
1 MOL         1 TEMP              0 ****  ****    0 ROOT

@<TRIPOS>MOLECULE
MOL
   10    9    1    0    0
SMALL
bcc


@<TRIPOS>ATOM
   1   C1        0.6360    1.3470    0.4890   c3 1 MOL  0.1274
   2   C2        0.0250   -0.0490    0.2740   c3 1 MOL  0.1274
   3   O1        1.0580   -1.0030    0.0580   oh 1 MOL -0.6040
   4   O2       -0.0396    2.0149    1.5481   oh 1 MOL -0.6040
   5   H1        1.6937    1.2555    0.7451   h1 1 MOL  0.0357
   6   H2        0.5418    1.9398   -0.4230   h1 1 MOL  0.0357
   7   H3       -0.6350   -0.0380   -0.5960   h1 1 MOL  0.0357
   8   H4       -0.5520   -0.3440    1.1540   h1 1 MOL  0.0357
   9   H5        0.5890   -1.8550   -0.0690   ho 1 MOL  0.4050
  10   H6        0.4060    2.8848    1.6189   ho 1 MOL  0.4050
@<TRIPOS>BOND
    1     1     2  1
    2     2     3  1
    3     1     4  1
    4     1     5  1
    5     1     6  1
    6     2     7  1
    7     2     8  1
    8     3     9  1
    9     4    10  1
@<TRIPOS>SUBSTRUCTURE
1 MOL         1 TEMP              0 ****  ****    0 ROOT

@<TRIPOS>MOLECULE
MOL
   10    9    1    0    0
SMALL
bcc


@<TRIPOS>ATOM
   1   C1        0.6360    1.3470    0.4890   c3 1 MOL  0.1274
   2   C2        0.0250   -0.0490    0.2740   c3 1 MOL  0.1274
   3   O1        1.0580   -1.0030    0.0580   oh 1 MOL -0.6040
   4   O2       -0.0243    2.0059    1.5633   oh 1 MOL -0.6040
   5   H1        1.6978    1.2564    0.7277   h1 1 MOL  0.0357
   6   H2        0.5260    1.9459   -0.4172   h1 1 MOL  0.0357
   7   H3       -0.6350   -0.0380   -0.5960   h1 1 MOL  0.0357
   8   H4       -0.5520   -0.3440    1.1540   h1 1 MOL  0.0357
   9   H5        0.5890   -1.8550   -0.0690   ho 1 MOL  0.4050
  10   H6        0.4202    2.8764    1.6331   ho 1 MOL  0.4050
@<TRIPOS>BOND
    1     1     2  1
    2     2     3  1
    3     1     4  1
    4     1     5  1
    5     1     6  1
    6     2     7  1
    7     2     8  1
    8     3     9  1
    9     4    10  1
@<TRIPOS>SUBSTRUCTURE
1 MOL         1 TEMP              0 ****  ****    0 ROOT

@<TRIPOS>MOLECULE
MOL
   10    9    1    0    0
SMALL
bcc


@<TRIPOS>ATOM
   1   C1        0.6360    1.3470    0.4890   c3 1 MOL  0.1274
   2   C2        0.0250   -0.0490    0.2740   c3 1 MOL  0.1274
   3   O1        1.0580   -1.0030    0.0580   oh 1 MOL -0.6040
   4   O2       -0.0088    1.9968    1.5782   oh 1 MOL -0.6040
   5   H1        1.7017    1.2574    0.7102   h1 1 MOL  0.0357
   6   H2        0.5102    1.9519   -0.4112   h1 1 MOL  0.0357
   7   H3       -0.6350   -0.0380   -0.5960   h1 1 MOL  0.0357
   8   H4       -0.5520   -0.3440    1.1540   h1 1 MOL  0.0357
   9   H5        0.5890   -1.8550   -0.0690   ho 1 MOL  0.4050
  10   H6        0.4347    2.8679    1.6470   ho 1 MOL  0.4050
@<TRIPOS>BOND
    1     1     2  1
    2     2     3  1
    3     1     4  1
    4     1     5  1
    5     1     6  1
    6     2     7  1
    7     2     8  1
    8     3     9  1
    9     4    10  1
@<TRIPOS>SUBSTRUCTURE
1 MOL         1 TEMP              0 ****  ****    0 ROOT

@<TRIPOS>MOLECULE
MOL
   10    9    1    0    0
SMALL
bcc


@<TRIPOS>ATOM
   1   C1        0.6360    1.3470    0.4890   c3 1 MOL  0.1274
   2   C2        0.0250   -0.0490    0.2740   c3 1 MOL  0.1274
   3   O1        1.0580   -1.0030    0.0580   oh 1 MOL -0.6040
   4   O2        0.0070    1.9876    1.5927   oh 1 MOL -0.6040
   5   H1        1.7053    1.2585    0.6927   h1 1 MOL  0.0357
   6   H2        0.4945    1.9578   -0.4049   h1 1 MOL  0.0357
   7   H3       -0.6350   -0.0380   -0.5960   h1 1 MOL  0.0357
   8   H4       -0.5520   -0.3440    1.1540   h1 1 MOL  0.0357
   9   H5        0.5890   -1.8550   -0.0690   ho 1 MOL  0.4050
  10   H6        0.4495    2.8593    1.6605   ho 1 MOL  0.4050
@<TRIPOS>BOND
    1     1     2  1
    2     2     3  1
    3     1     4  1
    4     1     5  1
    5     1     6  1
    6     2     7  1
    7     2     8  1
    8     3     9  1
    9     4    10  1
@<TRIPOS>SUBSTRUCTURE
1 MOL         1 TEMP              0 ****  ****    0 ROOT

@<TRIPOS>MOLECULE
MOL
   10    9    1    0    0
SMALL
bcc


@<TRIPOS>ATOM
   1   C1        0.6360    1.3470    0.4890   c3 1 MOL  0.1274
   2   C2        0.0250   -0.0490    0.2740   c3 1 MOL  0.1274
   3   O1        1.0580   -1.0030    0.0580   oh 1 MOL -0.6040
   4   O2        0.0230    1.9784    1.6070   oh 1 MOL -0.6040
   5   H1        1.7086    1.2598    0.6752   h1 1 MOL  0.0357
   6   H2        0.4789    1.9636   -0.3982   h1 1 MOL  0.0357
   7   H3       -0.6350   -0.0380   -0.5960   h1 1 MOL  0.0357
   8   H4       -0.5520   -0.3440    1.1540   h1 1 MOL  0.0357
   9   H5        0.5890   -1.8550   -0.0690   ho 1 MOL  0.4050
  10   H6        0.4645    2.8507    1.6738   ho 1 MOL  0.4050
@<TRIPOS>BOND
    1     1     2  1
    2     2     3  1
    3     1     4  1
    4     1     5  1
    5     1     6  1
    6     2     7  1
    7     2     8  1
    8     3     9  1
    9     4    10  1
@<TRIPOS>SUBSTRUCTURE
1 MOL         1 TEMP              0 ****  ****    0 ROOT

@<TRIPOS>MOLECULE
MOL
   10    9    1    0    0
SMALL
bcc


@<TRIPOS>ATOM
   1   C1        0.6360    1.3470    0.4890   c3 1 MOL  0.1274
   2   C2        0.0250   -0.0490    0.2740   c3 1 MOL  0.1274
   3   O1        1.0580   -1.0030    0.0580   oh 1 MOL -0.6040
   4   O2        0.0393    1.9691    1.6209   oh 1 MOL -0.6040
   5   H1        1.7116    1.2611    0.6576   h1 1 MOL  0.0357
   6   H2        0.4634    1.9693   -0.3913   h1 1 MOL  0.0357
   7   H3       -0.6350   -0.0380   -0.5960   h1 1 MOL  0.0357
   8   H4       -0.5520   -0.3440    1.1540   h1 1 MOL  0.0357
   9   H5        0.5890   -1.8550   -0.0690   ho 1 MOL  0.4050
  10   H6        0.4797    2.8421    1.6868   ho 1 MOL  0.4050
@<TRIPOS>BOND
    1     1     2  1
    2     2     3  1
    3     1     4  1
    4     1     5  1
    5     1     6  1
    6     2     7  1
    7     2     8  1
    8     3     9  1
    9     4    10  1
@<TRIPOS>SUBSTRUCTURE
1 MOL         1 TEMP              0 ****  ****    0 ROOT

@<TRIPOS>MOLECULE
MOL
   10    9    1    0    0
SMALL
bcc


@<TRIPOS>ATOM
   1   C1        0.6360    1.3470    0.4890   c3 1 MOL  0.1274
   2   C2        0.0250   -0.0490    0.2740   c3 1 MOL  0.1274
   3   O1        1.0580   -1.0030    0.0580   oh 1 MOL -0.6040
   4   O2        0.0558    1.9598    1.6345   oh 1 MOL -0.6040
   5   H1        1.7143    1.2627    0.6399   h1 1 MOL  0.0357
   6   H2        0.4480    1.9749   -0.3841   h1 1 MOL  0.0357
   7   H3       -0.6350   -0.0380   -0.5960   h1 1 MOL  0.0357
   8   H4       -0.5520   -0.3440    1.1540   h1 1 MOL  0.0357
   9   H5        0.5890   -1.8550   -0.0690   ho 1 MOL  0.4050
  10   H6        0.4951    2.8334    1.6995   ho 1 MOL  0.4050
@<TRIPOS>BOND
    1     1     2  1
    2     2     3  1
    3     1     4  1
    4     1     5  1
    5     1     6  1
    6     2     7  1
    7     2     8  1
    8     3     9  1
    9     4    10  1
@<TRIPOS>SUBSTRUCTURE
1 MOL         1 TEMP              0 ****  ****    0 ROOT

@<TRIPOS>MOLECULE
MOL
   10    9    1    0    0
SMALL
bcc


@<TRIPOS>ATOM
   1   C1        0.6360    1.3470    0.4890   c3 1 MOL  0.1274
   2   C2        0.0250   -0.0490    0.2740   c3 1 MOL  0.1274
   3   O1        1.0580   -1.0030    0.0580   oh 1 MOL -0.6040
   4   O2        0.0726    1.9504    1.6478   oh 1 MOL -0.6040
   5   H1        1.7168    1.2643    0.6222   h1 1 MOL  0.0357
   6   H2        0.4327    1.9805   -0.3767   h1 1 MOL  0.0357
   7   H3       -0.6350   -0.0380   -0.5960   h1 1 MOL  0.0357
   8   H4       -0.5520   -0.3440    1.1540   h1 1 MOL  0.0357
   9   H5        0.5890   -1.8550   -0.0690   ho 1 MOL  0.4050
  10   H6        0.5107    2.8246    1.7119   ho 1 MOL  0.4050
@<TRIPOS>BOND
    1     1     2  1
    2     2     3  1
    3     1     4  1
    4     1     5  1
    5     1     6  1
    6     2     7  1
    7     2     8  1
    8     3     9  1
    9     4    10  1
@<TRIPOS>SUBSTRUCTURE
1 MOL         1 TEMP              0 ****  ****    0 ROOT

@<TRIPOS>MOLECULE
MOL
   10    9    1    0    0
SMALL
bcc


@<TRIPOS>ATOM
   1   C1        0.6360    1.3470    0.4890   c3 1 MOL  0.1274
   2   C2        0.0250   -0.0490    0.2740   c3 1 MOL  0.1274
   3   O1        1.0580   -1.0030    0.0580   oh 1 MOL -0.6040
   4   O2        0.0896    1.9410    1.6607   oh 1 MOL -0.6040
   5   H1        1.7189    1.2661    0.6045   h1 1 MOL  0.0357
   6   H2        0.4175    1.9859   -0.3689   h1 1 MOL  0.0357
   7   H3       -0.6350   -0.0380   -0.5960   h1 1 MOL  0.0357
   8   H4       -0.5520   -0.3440    1.1540   h1 1 MOL  0.0357
   9   H5        0.5890   -1.8550   -0.0690   ho 1 MOL  0.4050
  10   H6        0.5266    2.8158    1.7239   ho 1 MOL  0.4050
@<TRIPOS>BOND
    1     1     2  1
    2     2     3  1
    3     1     4  1
    4     1     5  1
    5     1     6  1
    6     2     7  1
    7     2     8  1
    8     3     9  1
    9     4    10  1
@<TRIPOS>SUBSTRUCTURE
1 MOL         1 TEMP              0 ****  ****    0 ROOT

@<TRIPOS>MOLECULE
MOL
   10    9    1    0    0
SMALL
bcc


@<TRIPOS>ATOM
   1   C1        0.6360    1.3470    0.4890   c3 1 MOL  0.1274
   2   C2        0.0250   -0.0490    0.2740   c3 1 MOL  0.1274
   3   O1        1.0580   -1.0030    0.0580   oh 1 MOL -0.6040
   4   O2        0.1068    1.9315    1.6733   oh 1 MOL -0.6040
   5   H1        1.7208    1.2680    0.5868   h1 1 MOL  0.0357
   6   H2        0.4024    1.9913   -0.3609   h1 1 MOL  0.0357
   7   H3       -0.6350   -0.0380   -0.5960   h1 1 MOL  0.0357
   8   H4       -0.5520   -0.3440    1.1540   h1 1 MOL  0.0357
   9   H5        0.5890   -1.8550   -0.0690   ho 1 MOL  0.4050
  10   H6        0.5427    2.8070    1.7357   ho 1 MOL  0.4050
@<TRIPOS>BOND
    1     1     2  1
    2     2     3  1
    3     1     4  1
    4     1     5  1
    5     1     6  1
    6     2     7  1
    7     2     8  1
    8     3     9  1
    9     4    10  1
@<TRIPOS>SUBSTRUCTURE
1 MOL         1 TEMP              0 ****  ****    0 ROOT

@<TRIPOS>MOLECULE
MOL
   10    9    1    0    0
SMALL
bcc


@<TRIPOS>ATOM
   1   C1        0.6360    1.3470    0.4890   c3 1 MOL  0.1274
   2   C2        0.0250   -0.0490    0.2740   c3 1 MOL  0.1274
   3   O1        1.0580   -1.0030    0.0580   oh 1 MOL -0.6040
   4   O2        0.1242    1.9220    1.6855   oh 1 MOL -0.6040
   5   H1        1.7224    1.2700    0.5691   h1 1 MOL  0.0357
   6   H2        0.3875    1.9966   -0.3526   h1 1 MOL  0.0357
   7   H3       -0.6350   -0.0380   -0.5960   h1 1 MOL  0.0357
   8   H4       -0.5520   -0.3440    1.1540   h1 1 MOL  0.0357
   9   H5        0.5890   -1.8550   -0.0690   ho 1 MOL  0.4050
  10   H6        0.5590    2.7981    1.7471   ho 1 MOL  0.4050
@<TRIPOS>BOND
    1     1     2  1
    2     2     3  1
    3     1     4  1
    4     1     5  1
    5     1     6  1
    6     2     7  1
    7     2     8  1
    8     3     9  1
    9     4    10  1
@<TRIPOS>SUBSTRUCTURE
1 MOL         1 TEMP              0 ****  ****    0 ROOT

@<TRIPOS>MOLECULE
MOL
   10    9    1    0    0
SMALL
bcc


@<TRIPOS>ATOM
   1   C1        0.6360    1.3470    0.4890   c3 1 MOL  0.1274
   2   C2        0.0250   -0.0490    0.2740   c3 1 MOL  0.1274
   3   O1        1.0580   -1.0030    0.0580   oh 1 MOL -0.6040
   4   O2        0.1419    1.9125    1.6975   oh 1 MOL -0.6040
   5   H1        1.7237    1.2722    0.5514   h1 1 MOL  0.0357
   6   H2        0.3726    2.0017   -0.3440   h1 1 MOL  0.0357
   7   H3       -0.6350   -0.0380   -0.5960   h1 1 MOL  0.0357
   8   H4       -0.5520   -0.3440    1.1540   h1 1 MOL  0.0357
   9   H5        0.5890   -1.8550   -0.0690   ho 1 MOL  0.4050
  10   H6        0.5754    2.7892    1.7582   ho 1 MOL  0.4050
@<TRIPOS>BOND
    1     1     2  1
    2     2     3  1
    3     1     4  1
    4     1     5  1
    5     1     6  1
    6     2     7  1
    7     2     8  1
    8     3     9  1
    9     4    10  1
@<TRIPOS>SUBSTRUCTURE
1 MOL         1 TEMP              0 ****  ****    0 ROOT

@<TRIPOS>MOLECULE
MOL
   10    9    1    0    0
SMALL
bcc


@<TRIPOS>ATOM
   1   C1        0.6360    1.3470    0.4890   c3 1 MOL  0.1274
   2   C2        0.0250   -0.0490    0.2740   c3 1 MOL  0.1274
   3   O1        1.0580   -1.0030    0.0580   oh 1 MOL -0.6040
   4   O2        0.1597    1.9029    1.7090   oh 1 MOL -0.6040
   5   H1        1.7248    1.2745    0.5336   h1 1 MOL  0.0357
   6   H2        0.3579    2.0068   -0.3352   h1 1 MOL  0.0357
   7   H3       -0.6350   -0.0380   -0.5960   h1 1 MOL  0.0357
   8   H4       -0.5520   -0.3440    1.1540   h1 1 MOL  0.0357
   9   H5        0.5890   -1.8550   -0.0690   ho 1 MOL  0.4050
  10   H6        0.5921    2.7802    1.7690   ho 1 MOL  0.4050
@<TRIPOS>BOND
    1     1     2  1
    2     2     3  1
    3     1     4  1
    4     1     5  1
    5     1     6  1
    6     2     7  1
    7     2     8  1
    8     3     9  1
    9     4    10  1
@<TRIPOS>SUBSTRUCTURE
1 MOL         1 TEMP              0 ****  ****    0 ROOT

@<TRIPOS>MOLECULE
MOL
   10    9    1    0    0
SMALL
bcc


@<TRIPOS>ATOM
   1   C1        0.6360    1.3470    0.4890   c3 1 MOL  0.1274
   2   C2        0.0250   -0.0490    0.2740   c3 1 MOL  0.1274
   3   O1        1.0580   -1.0030    0.0580   oh 1 MOL -0.6040
   4   O2        0.1778    1.8932    1.7202   oh 1 MOL -0.6040
   5   H1        1.7255    1.2769    0.5159   h1 1 MOL  0.0357
   6   H2        0.3433    2.0118   -0.3261   h1 1 MOL  0.0357
   7   H3       -0.6350   -0.0380   -0.5960   h1 1 MOL  0.0357
   8   H4       -0.5520   -0.3440    1.1540   h1 1 MOL  0.0357
   9   H5        0.5890   -1.8550   -0.0690   ho 1 MOL  0.4050
  10   H6        0.6090    2.7712    1.7795   ho 1 MOL  0.4050
@<TRIPOS>BOND
    1     1     2  1
    2     2     3  1
    3     1     4  1
    4     1     5  1
    5     1     6  1
    6     2     7  1
    7     2     8  1
    8     3     9  1
    9     4    10  1
@<TRIPOS>SUBSTRUCTURE
1 MOL         1 TEMP              0 ****  ****    0 ROOT

@<TRIPOS>MOLECULE
MOL
   10    9    1    0    0
SMALL
bcc


@<TRIPOS>ATOM
   1   C1        0.6360    1.3470    0.4890   c3 1 MOL  0.1274
   2   C2        0.0250   -0.0490    0.2740   c3 1 MOL  0.1274
   3   O1        1.0580   -1.0030    0.0580   oh 1 MOL -0.6040
   4   O2        0.1960    1.8836    1.7311   oh 1 MOL -0.6040
   5   H1        1.7260    1.2794    0.4982   h1 1 MOL  0.0357
   6   H2        0.3288    2.0167   -0.3167   h1 1 MOL  0.0357
   7   H3       -0.6350   -0.0380   -0.5960   h1 1 MOL  0.0357
   8   H4       -0.5520   -0.3440    1.1540   h1 1 MOL  0.0357
   9   H5        0.5890   -1.8550   -0.0690   ho 1 MOL  0.4050
  10   H6        0.6260    2.7622    1.7896   ho 1 MOL  0.4050
@<TRIPOS>BOND
    1     1     2  1
    2     2     3  1
    3     1     4  1
    4     1     5  1
    5     1     6  1
    6     2     7  1
    7     2     8  1
    8     3     9  1
    9     4    10  1
@<TRIPOS>SUBSTRUCTURE
1 MOL         1 TEMP              0 ****  ****    0 ROOT

@<TRIPOS>MOLECULE
MOL
   10    9    1    0    0
SMALL
bcc


@<TRIPOS>ATOM
   1   C1        0.6360    1.3470    0.4890   c3 1 MOL  0.1274
   2   C2        0.0250   -0.0490    0.2740   c3 1 MOL  0.1274
   3   O1        1.0580   -1.0030    0.0580   oh 1 MOL -0.6040
   4   O2        0.2145    1.8739    1.7416   oh 1 MOL -0.6040
   5   H1        1.7261    1.2821    0.4804   h1 1 MOL  0.0357
   6   H2        0.3145    2.0215   -0.3071   h1 1 MOL  0.0357
   7   H3       -0.6350   -0.0380   -0.5960   h1 1 MOL  0.0357
   8   H4       -0.5520   -0.3440    1.1540   h1 1 MOL  0.0357
   9   H5        0.5890   -1.8550   -0.0690   ho 1 MOL  0.4050
  10   H6        0.6433    2.7531    1.7994   ho 1 MOL  0.4050
@<TRIPOS>BOND
    1     1     2  1
    2     2     3  1
    3     1     4  1
    4     1     5  1
    5     1     6  1
    6     2     7  1
    7     2     8  1
    8     3     9  1
    9     4    10  1
@<TRIPOS>SUBSTRUCTURE
1 MOL         1 TEMP              0 ****  ****    0 ROOT

@<TRIPOS>MOLECULE
MOL
   10    9    1    0    0
SMALL
bcc


@<TRIPOS>ATOM
   1   C1        0.6360    1.3470    0.4890   c3 1 MOL  0.1274
   2   C2        0.0250   -0.0490    0.2740   c3 1 MOL  0.1274
   3   O1        1.0580   -1.0030    0.0580   oh 1 MOL -0.6040
   4   O2        0.2331    1.8642    1.7518   oh 1 MOL -0.6040
   5   H1        1.7260    1.2848    0.4627   h1 1 MOL  0.0357
   6   H2        0.3003    2.0262   -0.2972   h1 1 MOL  0.0357
   7   H3       -0.6350   -0.0380   -0.5960   h1 1 MOL  0.0357
   8   H4       -0.5520   -0.3440    1.1540   h1 1 MOL  0.0357
   9   H5        0.5890   -1.8550   -0.0690   ho 1 MOL  0.4050
  10   H6        0.6607    2.7441    1.8089   ho 1 MOL  0.4050
@<TRIPOS>BOND
    1     1     2  1
    2     2     3  1
    3     1     4  1
    4     1     5  1
    5     1     6  1
    6     2     7  1
    7     2     8  1
    8     3     9  1
    9     4    10  1
@<TRIPOS>SUBSTRUCTURE
1 MOL         1 TEMP              0 ****  ****    0 ROOT

@<TRIPOS>MOLECULE
MOL
   10    9    1    0    0
SMALL
bcc


@<TRIPOS>ATOM
   1   C1        0.6360    1.3470    0.4890   c3 1 MOL  0.1274
   2   C2        0.0250   -0.0490    0.2740   c3 1 MOL  0.1274
   3   O1        1.0580   -1.0030    0.0580   oh 1 MOL -0.6040
   4   O2        0.2519    1.8544    1.7615   oh 1 MOL -0.6040
   5   H1        1.7256    1.2877    0.4451   h1 1 MOL  0.0357
   6   H2        0.2863    2.0307   -0.2870   h1 1 MOL  0.0357
   7   H3       -0.6350   -0.0380   -0.5960   h1 1 MOL  0.0357
   8   H4       -0.5520   -0.3440    1.1540   h1 1 MOL  0.0357
   9   H5        0.5890   -1.8550   -0.0690   ho 1 MOL  0.4050
  10   H6        0.6782    2.7350    1.8180   ho 1 MOL  0.4050
@<TRIPOS>BOND
    1     1     2  1
    2     2     3  1
    3     1     4  1
    4     1     5  1
    5     1     6  1
    6     2     7  1
    7     2     8  1
    8     3     9  1
    9     4    10  1
@<TRIPOS>SUBSTRUCTURE
1 MOL         1 TEMP              0 ****  ****    0 ROOT

@<TRIPOS>MOLECULE
MOL
   10    9    1    0    0
SMALL
bcc


@<TRIPOS>ATOM
   1   C1        0.6360    1.3470    0.4890   c3 1 MOL  0.1274
   2   C2        0.0250   -0.0490    0.2740   c3 1 MOL  0.1274
   3   O1        1.0580   -1.0030    0.0580   oh 1 MOL -0.6040
   4   O2        0.2709    1.8446    1.7709   oh 1 MOL -0.6040
   5   H1        1.7249    1.2908    0.4274   h1 1 MOL  0.0357
   6   H2        0.2724    2.0352   -0.2766   h1 1 MOL  0.0357
   7   H3       -0.6350   -0.0380   -0.5960   h1 1 MOL  0.0357
   8   H4       -0.5520   -0.3440    1.1540   h1 1 MOL  0.0357
   9   H5        0.5890   -1.8550   -0.0690   ho 1 MOL  0.4050
  10   H6        0.6960    2.7258    1.8268   ho 1 MOL  0.4050
@<TRIPOS>BOND
    1     1     2  1
    2     2     3  1
    3     1     4  1
    4     1     5  1
    5     1     6  1
    6     2     7  1
    7     2     8  1
    8     3     9  1
    9     4    10  1
@<TRIPOS>SUBSTRUCTURE
1 MOL         1 TEMP              0 ****  ****    0 ROOT

@<TRIPOS>MOLECULE
MOL
   10    9    1    0    0
SMALL
bcc


@<TRIPOS>ATOM
   1   C1        0.6360    1.3470    0.4890   c3 1 MOL  0.1274
   2   C2        0.0250   -0.0490    0.2740   c3 1 MOL  0.1274
   3   O1        1.0580   -1.0030    0.0580   oh 1 MOL -0.6040
   4   O2        0.2901    1.8349    1.7800   oh 1 MOL -0.6040
   5   H1        1.7239    1.2939    0.4098   h1 1 MOL  0.0357
   6   H2        0.2587    2.0396   -0.2660   h1 1 MOL  0.0357
   7   H3       -0.6350   -0.0380   -0.5960   h1 1 MOL  0.0357
   8   H4       -0.5520   -0.3440    1.1540   h1 1 MOL  0.0357
   9   H5        0.5890   -1.8550   -0.0690   ho 1 MOL  0.4050
  10   H6        0.7139    2.7167    1.8352   ho 1 MOL  0.4050
@<TRIPOS>BOND
    1     1     2  1
    2     2     3  1
    3     1     4  1
    4     1     5  1
    5     1     6  1
    6     2     7  1
    7     2     8  1
    8     3     9  1
    9     4    10  1
@<TRIPOS>SUBSTRUCTURE
1 MOL         1 TEMP              0 ****  ****    0 ROOT

@<TRIPOS>MOLECULE
MOL
   10    9    1    0    0
SMALL
bcc


@<TRIPOS>ATOM
   1   C1        0.6360    1.3470    0.4890   c3 1 MOL  0.1274
   2   C2        0.0250   -0.0490    0.2740   c3 1 MOL  0.1274
   3   O1        1.0580   -1.0030    0.0580   oh 1 MOL -0.6040
   4   O2        0.3094    1.8251    1.7887   oh 1 MOL -0.6040
   5   H1        1.7226    1.2972    0.3922   h1 1 MOL  0.0357
   6   H2        0.2452    2.0438   -0.2551   h1 1 MOL  0.0357
   7   H3       -0.6350   -0.0380   -0.5960   h1 1 MOL  0.0357
   8   H4       -0.5520   -0.3440    1.1540   h1 1 MOL  0.0357
   9   H5        0.5890   -1.8550   -0.0690   ho 1 MOL  0.4050
  10   H6        0.7319    2.7076    1.8433   ho 1 MOL  0.4050
@<TRIPOS>BOND
    1     1     2  1
    2     2     3  1
    3     1     4  1
    4     1     5  1
    5     1     6  1
    6     2     7  1
    7     2     8  1
    8     3     9  1
    9     4    10  1
@<TRIPOS>SUBSTRUCTURE
1 MOL         1 TEMP              0 ****  ****    0 ROOT

@<TRIPOS>MOLECULE
MOL
   10    9    1    0    0
SMALL
bcc


@<TRIPOS>ATOM
   1   C1        0.6360    1.3470    0.4890   c3 1 MOL  0.1274
   2   C2        0.0250   -0.0490    0.2740   c3 1 MOL  0.1274
   3   O1        1.0580   -1.0030    0.0580   oh 1 MOL -0.6040
   4   O2        0.3289    1.8153    1.7970   oh 1 MOL -0.6040
   5   H1        1.7211    1.3005    0.3747   h1 1 MOL  0.0357
   6   H2        0.2318    2.0480   -0.2440   h1 1 MOL  0.0357
   7   H3       -0.6350   -0.0380   -0.5960   h1 1 MOL  0.0357
   8   H4       -0.5520   -0.3440    1.1540   h1 1 MOL  0.0357
   9   H5        0.5890   -1.8550   -0.0690   ho 1 MOL  0.4050
  10   H6        0.7501    2.6984    1.8510   ho 1 MOL  0.4050
@<TRIPOS>BOND
    1     1     2  1
    2     2     3  1
    3     1     4  1
    4     1     5  1
    5     1     6  1
    6     2     7  1
    7     2     8  1
    8     3     9  1
    9     4    10  1
@<TRIPOS>SUBSTRUCTURE
1 MOL         1 TEMP              0 ****  ****    0 ROOT

@<TRIPOS>MOLECULE
MOL
   10    9    1    0    0
SMALL
bcc


@<TRIPOS>ATOM
   1   C1        0.6360    1.3470    0.4890   c3 1 MOL  0.1274
   2   C2        0.0250   -0.0490    0.2740   c3 1 MOL  0.1274
   3   O1        1.0580   -1.0030    0.0580   oh 1 MOL -0.6040
   4   O2        0.3486    1.8054    1.8049   oh 1 MOL -0.6040
   5   H1        1.7193    1.3040    0.3572   h1 1 MOL  0.0357
   6   H2        0.2185    2.0520   -0.2326   h1 1 MOL  0.0357
   7   H3       -0.6350   -0.0380   -0.5960   h1 1 MOL  0.0357
   8   H4       -0.5520   -0.3440    1.1540   h1 1 MOL  0.0357
   9   H5        0.5890   -1.8550   -0.0690   ho 1 MOL  0.4050
  10   H6        0.7685    2.6893    1.8584   ho 1 MOL  0.4050
@<TRIPOS>BOND
    1     1     2  1
    2     2     3  1
    3     1     4  1
    4     1     5  1
    5     1     6  1
    6     2     7  1
    7     2     8  1
    8     3     9  1
    9     4    10  1
@<TRIPOS>SUBSTRUCTURE
1 MOL         1 TEMP              0 ****  ****    0 ROOT

@<TRIPOS>MOLECULE
MOL
   10    9    1    0    0
SMALL
bcc


@<TRIPOS>ATOM
   1   C1        0.6360    1.3470    0.4890   c3 1 MOL  0.1274
   2   C2        0.0250   -0.0490    0.2740   c3 1 MOL  0.1274
   3   O1        1.0580   -1.0030    0.0580   oh 1 MOL -0.6040
   4   O2        0.3684    1.7956    1.8124   oh 1 MOL -0.6040
   5   H1        1.7171    1.3076    0.3398   h1 1 MOL  0.0357
   6   H2        0.2055    2.0559   -0.2210   h1 1 MOL  0.0357
   7   H3       -0.6350   -0.0380   -0.5960   h1 1 MOL  0.0357
   8   H4       -0.5520   -0.3440    1.1540   h1 1 MOL  0.0357
   9   H5        0.5890   -1.8550   -0.0690   ho 1 MOL  0.4050
  10   H6        0.7869    2.6801    1.8654   ho 1 MOL  0.4050
@<TRIPOS>BOND
    1     1     2  1
    2     2     3  1
    3     1     4  1
    4     1     5  1
    5     1     6  1
    6     2     7  1
    7     2     8  1
    8     3     9  1
    9     4    10  1
@<TRIPOS>SUBSTRUCTURE
1 MOL         1 TEMP              0 ****  ****    0 ROOT

@<TRIPOS>MOLECULE
MOL
   10    9    1    0    0
SMALL
bcc


@<TRIPOS>ATOM
   1   C1        0.6360    1.3470    0.4890   c3 1 MOL  0.1274
   2   C2        0.0250   -0.0490    0.2740   c3 1 MOL  0.1274
   3   O1        1.0580   -1.0030    0.0580   oh 1 MOL -0.6040
   4   O2        0.3883    1.7858    1.8196   oh 1 MOL -0.6040
   5   H1        1.7147    1.3114    0.3225   h1 1 MOL  0.0357
   6   H2        0.1926    2.0598   -0.2091   h1 1 MOL  0.0357
   7   H3       -0.6350   -0.0380   -0.5960   h1 1 MOL  0.0357
   8   H4       -0.5520   -0.3440    1.1540   h1 1 MOL  0.0357
   9   H5        0.5890   -1.8550   -0.0690   ho 1 MOL  0.4050
  10   H6        0.8055    2.6709    1.8721   ho 1 MOL  0.4050
@<TRIPOS>BOND
    1     1     2  1
    2     2     3  1
    3     1     4  1
    4     1     5  1
    5     1     6  1
    6     2     7  1
    7     2     8  1
    8     3     9  1
    9     4    10  1
@<TRIPOS>SUBSTRUCTURE
1 MOL         1 TEMP              0 ****  ****    0 ROOT

@<TRIPOS>MOLECULE
MOL
   10    9    1    0    0
SMALL
bcc


@<TRIPOS>ATOM
   1   C1        0.6360    1.3470    0.4890   c3 1 MOL  0.1274
   2   C2        0.0250   -0.0490    0.2740   c3 1 MOL  0.1274
   3   O1        1.0580   -1.0030    0.0580   oh 1 MOL -0.6040
   4   O2        0.4083    1.7760    1.8263   oh 1 MOL -0.6040
   5   H1        1.7120    1.3152    0.3052   h1 1 MOL  0.0357
   6   H2        0.1799    2.0635   -0.1971   h1 1 MOL  0.0357
   7   H3       -0.6350   -0.0380   -0.5960   h1 1 MOL  0.0357
   8   H4       -0.5520   -0.3440    1.1540   h1 1 MOL  0.0357
   9   H5        0.5890   -1.8550   -0.0690   ho 1 MOL  0.4050
  10   H6        0.8243    2.6617    1.8784   ho 1 MOL  0.4050
@<TRIPOS>BOND
    1     1     2  1
    2     2     3  1
    3     1     4  1
    4     1     5  1
    5     1     6  1
    6     2     7  1
    7     2     8  1
    8     3     9  1
    9     4    10  1
@<TRIPOS>SUBSTRUCTURE
1 MOL         1 TEMP              0 ****  ****    0 ROOT

@<TRIPOS>MOLECULE
MOL
   10    9    1    0    0
SMALL
bcc


@<TRIPOS>ATOM
   1   C1        0.6360    1.3470    0.4890   c3 1 MOL  0.1274
   2   C2        0.0250   -0.0490    0.2740   c3 1 MOL  0.1274
   3   O1        1.0580   -1.0030    0.0580   oh 1 MOL -0.6040
   4   O2        0.4285    1.7662    1.8327   oh 1 MOL -0.6040
   5   H1        1.7091    1.3192    0.2880   h1 1 MOL  0.0357
   6   H2        0.1674    2.0670   -0.1848   h1 1 MOL  0.0357
   7   H3       -0.6350   -0.0380   -0.5960   h1 1 MOL  0.0357
   8   H4       -0.5520   -0.3440    1.1540   h1 1 MOL  0.0357
   9   H5        0.5890   -1.8550   -0.0690   ho 1 MOL  0.4050
  10   H6        0.8431    2.6526    1.8844   ho 1 MOL  0.4050
@<TRIPOS>BOND
    1     1     2  1
    2     2     3  1
    3     1     4  1
    4     1     5  1
    5     1     6  1
    6     2     7  1
    7     2     8  1
    8     3     9  1
    9     4    10  1
@<TRIPOS>SUBSTRUCTURE
1 MOL         1 TEMP              0 ****  ****    0 ROOT

@<TRIPOS>MOLECULE
MOL
   10    9    1    0    0
SMALL
bcc


@<TRIPOS>ATOM
   1   C1        0.6360    1.3470    0.4890   c3 1 MOL  0.1274
   2   C2        0.0250   -0.0490    0.2740   c3 1 MOL  0.1274
   3   O1        1.0580   -1.0030    0.0580   oh 1 MOL -0.6040
   4   O2        0.4488    1.7563    1.8387   oh 1 MOL -0.6040
   5   H1        1.7058    1.3232    0.2708   h1 1 MOL  0.0357
   6   H2        0.1551    2.0705   -0.1722   h1 1 MOL  0.0357
   7   H3       -0.6350   -0.0380   -0.5960   h1 1 MOL  0.0357
   8   H4       -0.5520   -0.3440    1.1540   h1 1 MOL  0.0357
   9   H5        0.5890   -1.8550   -0.0690   ho 1 MOL  0.4050
  10   H6        0.8621    2.6434    1.8899   ho 1 MOL  0.4050
@<TRIPOS>BOND
    1     1     2  1
    2     2     3  1
    3     1     4  1
    4     1     5  1
    5     1     6  1
    6     2     7  1
    7     2     8  1
    8     3     9  1
    9     4    10  1
@<TRIPOS>SUBSTRUCTURE
1 MOL         1 TEMP              0 ****  ****    0 ROOT

@<TRIPOS>MOLECULE
MOL
   10    9    1    0    0
SMALL
bcc


@<TRIPOS>ATOM
   1   C1        0.6360    1.3470    0.4890   c3 1 MOL  0.1274
   2   C2        0.0250   -0.0490    0.2740   c3 1 MOL  0.1274
   3   O1        1.0580   -1.0030    0.0580   oh 1 MOL -0.6040
   4   O2        0.4693    1.7465    1.8443   oh 1 MOL -0.6040
   5   H1        1.7023    1.3274    0.2538   h1 1 MOL  0.0357
   6   H2        0.1429    2.0739   -0.1595   h1 1 MOL  0.0357
   7   H3       -0.6350   -0.0380   -0.5960   h1 1 MOL  0.0357
   8   H4       -0.5520   -0.3440    1.1540   h1 1 MOL  0.0357
   9   H5        0.5890   -1.8550   -0.0690   ho 1 MOL  0.4050
  10   H6        0.8812    2.6343    1.8952   ho 1 MOL  0.4050
@<TRIPOS>BOND
    1     1     2  1
    2     2     3  1
    3     1     4  1
    4     1     5  1
    5     1     6  1
    6     2     7  1
    7     2     8  1
    8     3     9  1
    9     4    10  1
@<TRIPOS>SUBSTRUCTURE
1 MOL         1 TEMP              0 ****  ****    0 ROOT

@<TRIPOS>MOLECULE
MOL
   10    9    1    0    0
SMALL
bcc


@<TRIPOS>ATOM
   1   C1        0.6360    1.3470    0.4890   c3 1 MOL  0.1274
   2   C2        0.0250   -0.0490    0.2740   c3 1 MOL  0.1274
   3   O1        1.0580   -1.0030    0.0580   oh 1 MOL -0.6040
   4   O2        0.4898    1.7367    1.8495   oh 1 MOL -0.6040
   5   H1        1.6984    1.3317    0.2368   h1 1 MOL  0.0357
   6   H2        0.1310    2.0771   -0.1466   h1 1 MOL  0.0357
   7   H3       -0.6350   -0.0380   -0.5960   h1 1 MOL  0.0357
   8   H4       -0.5520   -0.3440    1.1540   h1 1 MOL  0.0357
   9   H5        0.5890   -1.8550   -0.0690   ho 1 MOL  0.4050
  10   H6        0.9003    2.6251    1.9000   ho 1 MOL  0.4050
@<TRIPOS>BOND
    1     1     2  1
    2     2     3  1
    3     1     4  1
    4     1     5  1
    5     1     6  1
    6     2     7  1
    7     2     8  1
    8     3     9  1
    9     4    10  1
@<TRIPOS>SUBSTRUCTURE
1 MOL         1 TEMP              0 ****  ****    0 ROOT

@<TRIPOS>MOLECULE
MOL
   10    9    1    0    0
SMALL
bcc


@<TRIPOS>ATOM
   1   C1        0.6360    1.3470    0.4890   c3 1 MOL  0.1274
   2   C2        0.0250   -0.0490    0.2740   c3 1 MOL  0.1274
   3   O1        1.0580   -1.0030    0.0580   oh 1 MOL -0.6040
   4   O2        0.5104    1.7270    1.8543   oh 1 MOL -0.6040
   5   H1        1.6944    1.3361    0.2199   h1 1 MOL  0.0357
   6   H2        0.1192    2.0802   -0.1334   h1 1 MOL  0.0357
   7   H3       -0.6350   -0.0380   -0.5960   h1 1 MOL  0.0357
   8   H4       -0.5520   -0.3440    1.1540   h1 1 MOL  0.0357
   9   H5        0.5890   -1.8550   -0.0690   ho 1 MOL  0.4050
  10   H6        0.9196    2.6160    1.9045   ho 1 MOL  0.4050
@<TRIPOS>BOND
    1     1     2  1
    2     2     3  1
    3     1     4  1
    4     1     5  1
    5     1     6  1
    6     2     7  1
    7     2     8  1
    8     3     9  1
    9     4    10  1
@<TRIPOS>SUBSTRUCTURE
1 MOL         1 TEMP              0 ****  ****    0 ROOT

@<TRIPOS>MOLECULE
MOL
   10    9    1    0    0
SMALL
bcc


@<TRIPOS>ATOM
   1   C1        0.6360    1.3470    0.4890   c3 1 MOL  0.1274
   2   C2        0.0250   -0.0490    0.2740   c3 1 MOL  0.1274
   3   O1        1.0580   -1.0030    0.0580   oh 1 MOL -0.6040
   4   O2        0.5312    1.7172    1.8588   oh 1 MOL -0.6040
   5   H1        1.6900    1.3406    0.2031   h1 1 MOL  0.0357
   6   H2        0.1077    2.0832   -0.1200   h1 1 MOL  0.0357
   7   H3       -0.6350   -0.0380   -0.5960   h1 1 MOL  0.0357
   8   H4       -0.5520   -0.3440    1.1540   h1 1 MOL  0.0357
   9   H5        0.5890   -1.8550   -0.0690   ho 1 MOL  0.4050
  10   H6        0.9390    2.6069    1.9086   ho 1 MOL  0.4050
@<TRIPOS>BOND
    1     1     2  1
    2     2     3  1
    3     1     4  1
    4     1     5  1
    5     1     6  1
    6     2     7  1
    7     2     8  1
    8     3     9  1
    9     4    10  1
@<TRIPOS>SUBSTRUCTURE
1 MOL         1 TEMP              0 ****  ****    0 ROOT

@<TRIPOS>MOLECULE
MOL
   10    9    1    0    0
SMALL
bcc


@<TRIPOS>ATOM
   1   C1        0.6360    1.3470    0.4890   c3 1 MOL  0.1274
   2   C2        0.0250   -0.0490    0.2740   c3 1 MOL  0.1274
   3   O1        1.0580   -1.0030    0.0580   oh 1 MOL -0.6040
   4   O2        0.5520    1.7075    1.8628   oh 1 MOL -0.6040
   5   H1        1.6853    1.3452    0.1864   h1 1 MOL  0.0357
   6   H2        0.0964    2.0861   -0.1065   h1 1 MOL  0.0357
   7   H3       -0.6350   -0.0380   -0.5960   h1 1 MOL  0.0357
   8   H4       -0.5520   -0.3440    1.1540   h1 1 MOL  0.0357
   9   H5        0.5890   -1.8550   -0.0690   ho 1 MOL  0.4050
  10   H6        0.9584    2.5978    1.9124   ho 1 MOL  0.4050
@<TRIPOS>BOND
    1     1     2  1
    2     2     3  1
    3     1     4  1
    4     1     5  1
    5     1     6  1
    6     2     7  1
    7     2     8  1
    8     3     9  1
    9     4    10  1
@<TRIPOS>SUBSTRUCTURE
1 MOL         1 TEMP              0 ****  ****    0 ROOT

@<TRIPOS>MOLECULE
MOL
   10    9    1    0    0
SMALL
bcc


@<TRIPOS>ATOM
   1   C1        0.6360    1.3470    0.4890   c3 1 MOL  0.1274
   2   C2        0.0250   -0.0490    0.2740   c3 1 MOL  0.1274
   3   O1        1.0580   -1.0030    0.0580   oh 1 MOL -0.6040
   4   O2        0.5729    1.6978    1.8664   oh 1 MOL -0.6040
   5   H1        1.6804    1.3499    0.1699   h1 1 MOL  0.0357
   6   H2        0.0852    2.0888   -0.0927   h1 1 MOL  0.0357
   7   H3       -0.6350   -0.0380   -0.5960   h1 1 MOL  0.0357
   8   H4       -0.5520   -0.3440    1.1540   h1 1 MOL  0.0357
   9   H5        0.5890   -1.8550   -0.0690   ho 1 MOL  0.4050
  10   H6        0.9779    2.5887    1.9158   ho 1 MOL  0.4050
@<TRIPOS>BOND
    1     1     2  1
    2     2     3  1
    3     1     4  1
    4     1     5  1
    5     1     6  1
    6     2     7  1
    7     2     8  1
    8     3     9  1
    9     4    10  1
@<TRIPOS>SUBSTRUCTURE
1 MOL         1 TEMP              0 ****  ****    0 ROOT

@<TRIPOS>MOLECULE
MOL
   10    9    1    0    0
SMALL
bcc


@<TRIPOS>ATOM
   1   C1        0.6360    1.3470    0.4890   c3 1 MOL  0.1274
   2   C2        0.0250   -0.0490    0.2740   c3 1 MOL  0.1274
   3   O1        1.0580   -1.0030    0.0580   oh 1 MOL -0.6040
   4   O2        0.5939    1.6881    1.8696   oh 1 MOL -0.6040
   5   H1        1.6752    1.3547    0.1534   h1 1 MOL  0.0357
   6   H2        0.0743    2.0914   -0.0787   h1 1 MOL  0.0357
   7   H3       -0.6350   -0.0380   -0.5960   h1 1 MOL  0.0357
   8   H4       -0.5520   -0.3440    1.1540   h1 1 MOL  0.0357
   9   H5        0.5890   -1.8550   -0.0690   ho 1 MOL  0.4050
  10   H6        0.9975    2.5797    1.9188   ho 1 MOL  0.4050
@<TRIPOS>BOND
    1     1     2  1
    2     2     3  1
    3     1     4  1
    4     1     5  1
    5     1     6  1
    6     2     7  1
    7     2     8  1
    8     3     9  1
    9     4    10  1
@<TRIPOS>SUBSTRUCTURE
1 MOL         1 TEMP              0 ****  ****    0 ROOT

@<TRIPOS>MOLECULE
MOL
   10    9    1    0    0
SMALL
bcc


@<TRIPOS>ATOM
   1   C1        0.6360    1.3470    0.4890   c3 1 MOL  0.1274
   2   C2        0.0250   -0.0490    0.2740   c3 1 MOL  0.1274
   3   O1        1.0580   -1.0030    0.0580   oh 1 MOL -0.6040
   4   O2        0.6150    1.6784    1.8725   oh 1 MOL -0.6040
   5   H1        1.6697    1.3596    0.1371   h1 1 MOL  0.0357
   6   H2        0.0636    2.0939   -0.0646   h1 1 MOL  0.0357
   7   H3       -0.6350   -0.0380   -0.5960   h1 1 MOL  0.0357
   8   H4       -0.5520   -0.3440    1.1540   h1 1 MOL  0.0357
   9   H5        0.5890   -1.8550   -0.0690   ho 1 MOL  0.4050
  10   H6        1.0172    2.5707    1.9214   ho 1 MOL  0.4050
@<TRIPOS>BOND
    1     1     2  1
    2     2     3  1
    3     1     4  1
    4     1     5  1
    5     1     6  1
    6     2     7  1
    7     2     8  1
    8     3     9  1
    9     4    10  1
@<TRIPOS>SUBSTRUCTURE
1 MOL         1 TEMP              0 ****  ****    0 ROOT

@<TRIPOS>MOLECULE
MOL
   10    9    1    0    0
SMALL
bcc


@<TRIPOS>ATOM
   1   C1        0.6360    1.3470    0.4890   c3 1 MOL  0.1274
   2   C2        0.0250   -0.0490    0.2740   c3 1 MOL  0.1274
   3   O1        1.0580   -1.0030    0.0580   oh 1 MOL -0.6040
   4   O2        0.6361    1.6688    1.8749   oh 1 MOL -0.6040
   5   H1        1.6640    1.3646    0.1209   h1 1 MOL  0.0357
   6   H2        0.0532    2.0963   -0.0503   h1 1 MOL  0.0357
   7   H3       -0.6350   -0.0380   -0.5960   h1 1 MOL  0.0357
   8   H4       -0.5520   -0.3440    1.1540   h1 1 MOL  0.0357
   9   H5        0.5890   -1.8550   -0.0690   ho 1 MOL  0.4050
  10   H6        1.0369    2.5617    1.9236   ho 1 MOL  0.4050
@<TRIPOS>BOND
    1     1     2  1
    2     2     3  1
    3     1     4  1
    4     1     5  1
    5     1     6  1
    6     2     7  1
    7     2     8  1
    8     3     9  1
    9     4    10  1
@<TRIPOS>SUBSTRUCTURE
1 MOL         1 TEMP              0 ****  ****    0 ROOT

@<TRIPOS>MOLECULE
MOL
   10    9    1    0    0
SMALL
bcc


@<TRIPOS>ATOM
   1   C1        0.6360    1.3470    0.4890   c3 1 MOL  0.1274
   2   C2        0.0250   -0.0490    0.2740   c3 1 MOL  0.1274
   3   O1        1.0580   -1.0030    0.0580   oh 1 MOL -0.6040
   4   O2        0.6573    1.6592    1.8769   oh 1 MOL -0.6040
   5   H1        1.6580    1.3697    0.1048   h1 1 MOL  0.0357
   6   H2        0.0429    2.0986   -0.0358   h1 1 MOL  0.0357
   7   H3       -0.6350   -0.0380   -0.5960   h1 1 MOL  0.0357
   8   H4       -0.5520   -0.3440    1.1540   h1 1 MOL  0.0357
   9   H5        0.5890   -1.8550   -0.0690   ho 1 MOL  0.4050
  10   H6        1.0567    2.5528    1.9255   ho 1 MOL  0.4050
@<TRIPOS>BOND
    1     1     2  1
    2     2     3  1
    3     1     4  1
    4     1     5  1
    5     1     6  1
    6     2     7  1
    7     2     8  1
    8     3     9  1
    9     4    10  1
@<TRIPOS>SUBSTRUCTURE
1 MOL         1 TEMP              0 ****  ****    0 ROOT

@<TRIPOS>MOLECULE
MOL
   10    9    1    0    0
SMALL
bcc


@<TRIPOS>ATOM
   1   C1        0.6360    1.3470    0.4890   c3 1 MOL  0.1274
   2   C2        0.0250   -0.0490    0.2740   c3 1 MOL  0.1274
   3   O1        1.0580   -1.0030    0.0580   oh 1 MOL -0.6040
   4   O2        0.6785    1.6497    1.8786   oh 1 MOL -0.6040
   5   H1        1.6517    1.3749    0.0888   h1 1 MOL  0.0357
   6   H2        0.0329    2.1007   -0.0211   h1 1 MOL  0.0357
   7   H3       -0.6350   -0.0380   -0.5960   h1 1 MOL  0.0357
   8   H4       -0.5520   -0.3440    1.1540   h1 1 MOL  0.0357
   9   H5        0.5890   -1.8550   -0.0690   ho 1 MOL  0.4050
  10   H6        1.0765    2.5439    1.9270   ho 1 MOL  0.4050
@<TRIPOS>BOND
    1     1     2  1
    2     2     3  1
    3     1     4  1
    4     1     5  1
    5     1     6  1
    6     2     7  1
    7     2     8  1
    8     3     9  1
    9     4    10  1
@<TRIPOS>SUBSTRUCTURE
1 MOL         1 TEMP              0 ****  ****    0 ROOT

@<TRIPOS>MOLECULE
MOL
   10    9    1    0    0
SMALL
bcc


@<TRIPOS>ATOM
   1   C1        0.6360    1.3470    0.4890   c3 1 MOL  0.1274
   2   C2        0.0250   -0.0490    0.2740   c3 1 MOL  0.1274
   3   O1        1.0580   -1.0030    0.0580   oh 1 MOL -0.6040
   4   O2        0.6998    1.6402    1.8798   oh 1 MOL -0.6040
   5   H1        1.6452    1.3802    0.0730   h1 1 MOL  0.0357
   6   H2        0.0231    2.1027   -0.0062   h1 1 MOL  0.0357
   7   H3       -0.6350   -0.0380   -0.5960   h1 1 MOL  0.0357
   8   H4       -0.5520   -0.3440    1.1540   h1 1 MOL  0.0357
   9   H5        0.5890   -1.8550   -0.0690   ho 1 MOL  0.4050
  10   H6        1.0964    2.5350    1.9282   ho 1 MOL  0.4050
@<TRIPOS>BOND
    1     1     2  1
    2     2     3  1
    3     1     4  1
    4     1     5  1
    5     1     6  1
    6     2     7  1
    7     2     8  1
    8     3     9  1
    9     4    10  1
@<TRIPOS>SUBSTRUCTURE
1 MOL         1 TEMP              0 ****  ****    0 ROOT

@<TRIPOS>MOLECULE
MOL
   10    9    1    0    0
SMALL
bcc


@<TRIPOS>ATOM
   1   C1        0.6360    1.3470    0.4890   c3 1 MOL  0.1274
   2   C2        0.0250   -0.0490    0.2740   c3 1 MOL  0.1274
   3   O1        1.0580   -1.0030    0.0580   oh 1 MOL -0.6040
   4   O2        0.7211    1.6307    1.8806   oh 1 MOL -0.6040
   5   H1        1.6384    1.3856    0.0573   h1 1 MOL  0.0357
   6   H2        0.0135    2.1046    0.0088   h1 1 MOL  0.0357
   7   H3       -0.6350   -0.0380   -0.5960   h1 1 MOL  0.0357
   8   H4       -0.5520   -0.3440    1.1540   h1 1 MOL  0.0357
   9   H5        0.5890   -1.8550   -0.0690   ho 1 MOL  0.4050
  10   H6        1.1163    2.5262    1.9289   ho 1 MOL  0.4050
@<TRIPOS>BOND
    1     1     2  1
    2     2     3  1
    3     1     4  1
    4     1     5  1
    5     1     6  1
    6     2     7  1
    7     2     8  1
    8     3     9  1
    9     4    10  1
@<TRIPOS>SUBSTRUCTURE
1 MOL         1 TEMP              0 ****  ****    0 ROOT

@<TRIPOS>MOLECULE
MOL
   10    9    1    0    0
SMALL
bcc


@<TRIPOS>ATOM
   1   C1        0.6360    1.3470    0.4890   c3 1 MOL  0.1274
   2   C2        0.0250   -0.0490    0.2740   c3 1 MOL  0.1274
   3   O1        1.0580   -1.0030    0.0580   oh 1 MOL -0.6040
   4   O2        0.7425    1.6213    1.8810   oh 1 MOL -0.6040
   5   H1        1.6313    1.3911    0.0418   h1 1 MOL  0.0357
   6   H2        0.0042    2.1063    0.0240   h1 1 MOL  0.0357
   7   H3       -0.6350   -0.0380   -0.5960   h1 1 MOL  0.0357
   8   H4       -0.5520   -0.3440    1.1540   h1 1 MOL  0.0357
   9   H5        0.5890   -1.8550   -0.0690   ho 1 MOL  0.4050
  10   H6        1.1362    2.5174    1.9293   ho 1 MOL  0.4050
@<TRIPOS>BOND
    1     1     2  1
    2     2     3  1
    3     1     4  1
    4     1     5  1
    5     1     6  1
    6     2     7  1
    7     2     8  1
    8     3     9  1
    9     4    10  1
@<TRIPOS>SUBSTRUCTURE
1 MOL         1 TEMP              0 ****  ****    0 ROOT

@<TRIPOS>MOLECULE
MOL
   10    9    1    0    0
SMALL
bcc


@<TRIPOS>ATOM
   1   C1        0.6360    1.3470    0.4890   c3 1 MOL  0.1274
   2   C2        0.0250   -0.0490    0.2740   c3 1 MOL  0.1274
   3   O1        1.0580   -1.0030    0.0580   oh 1 MOL -0.6040
   4   O2        0.7639    1.6119    1.8810   oh 1 MOL -0.6040
   5   H1        1.6240    1.3967    0.0264   h1 1 MOL  0.0357
   6   H2       -0.0049    2.1079    0.0393   h1 1 MOL  0.0357
   7   H3       -0.6350   -0.0380   -0.5960   h1 1 MOL  0.0357
   8   H4       -0.5520   -0.3440    1.1540   h1 1 MOL  0.0357
   9   H5        0.5890   -1.8550   -0.0690   ho 1 MOL  0.4050
  10   H6        1.1562    2.5086    1.9293   ho 1 MOL  0.4050
@<TRIPOS>BOND
    1     1     2  1
    2     2     3  1
    3     1     4  1
    4     1     5  1
    5     1     6  1
    6     2     7  1
    7     2     8  1
    8     3     9  1
    9     4    10  1
@<TRIPOS>SUBSTRUCTURE
1 MOL         1 TEMP              0 ****  ****    0 ROOT

@<TRIPOS>MOLECULE
MOL
   10    9    1    0    0
SMALL
bcc


@<TRIPOS>ATOM
   1   C1        0.6360    1.3470    0.4890   c3 1 MOL  0.1274
   2   C2        0.0250   -0.0490    0.2740   c3 1 MOL  0.1274
   3   O1        1.0580   -1.0030    0.0580   oh 1 MOL -0.6040
   4   O2        0.7853    1.6026    1.8806   oh 1 MOL -0.6040
   5   H1        1.6165    1.4023    0.0112   h1 1 MOL  0.0357
   6   H2       -0.0138    2.1094    0.0548   h1 1 MOL  0.0357
   7   H3       -0.6350   -0.0380   -0.5960   h1 1 MOL  0.0357
   8   H4       -0.5520   -0.3440    1.1540   h1 1 MOL  0.0357
   9   H5        0.5890   -1.8550   -0.0690   ho 1 MOL  0.4050
  10   H6        1.1762    2.4999    1.9289   ho 1 MOL  0.4050
@<TRIPOS>BOND
    1     1     2  1
    2     2     3  1
    3     1     4  1
    4     1     5  1
    5     1     6  1
    6     2     7  1
    7     2     8  1
    8     3     9  1
    9     4    10  1
@<TRIPOS>SUBSTRUCTURE
1 MOL         1 TEMP              0 ****  ****    0 ROOT

@<TRIPOS>MOLECULE
MOL
   10    9    1    0    0
SMALL
bcc


@<TRIPOS>ATOM
   1   C1        0.6360    1.3470    0.4890   c3 1 MOL  0.1274
   2   C2        0.0250   -0.0490    0.2740   c3 1 MOL  0.1274
   3   O1        1.0580   -1.0030    0.0580   oh 1 MOL -0.6040
   4   O2        0.8067    1.5934    1.8798   oh 1 MOL -0.6040
   5   H1        1.6086    1.4081   -0.0039   h1 1 MOL  0.0357
   6   H2       -0.0224    2.1108    0.0705   h1 1 MOL  0.0357
   7   H3       -0.6350   -0.0380   -0.5960   h1 1 MOL  0.0357
   8   H4       -0.5520   -0.3440    1.1540   h1 1 MOL  0.0357
   9   H5        0.5890   -1.8550   -0.0690   ho 1 MOL  0.4050
  10   H6        1.1962    2.4913    1.9282   ho 1 MOL  0.4050
@<TRIPOS>BOND
    1     1     2  1
    2     2     3  1
    3     1     4  1
    4     1     5  1
    5     1     6  1
    6     2     7  1
    7     2     8  1
    8     3     9  1
    9     4    10  1
@<TRIPOS>SUBSTRUCTURE
1 MOL         1 TEMP              0 ****  ****    0 ROOT

@<TRIPOS>MOLECULE
MOL
   10    9    1    0    0
SMALL
bcc


@<TRIPOS>ATOM
   1   C1        0.6360    1.3470    0.4890   c3 1 MOL  0.1274
   2   C2        0.0250   -0.0490    0.2740   c3 1 MOL  0.1274
   3   O1        1.0580   -1.0030    0.0580   oh 1 MOL -0.6040
   4   O2        0.8281    1.5842    1.8787   oh 1 MOL -0.6040
   5   H1        1.6005    1.4139   -0.0188   h1 1 MOL  0.0357
   6   H2       -0.0307    2.1120    0.0863   h1 1 MOL  0.0357
   7   H3       -0.6350   -0.0380   -0.5960   h1 1 MOL  0.0357
   8   H4       -0.5520   -0.3440    1.1540   h1 1 MOL  0.0357
   9   H5        0.5890   -1.8550   -0.0690   ho 1 MOL  0.4050
  10   H6        1.2162    2.4827    1.9271   ho 1 MOL  0.4050
@<TRIPOS>BOND
    1     1     2  1
    2     2     3  1
    3     1     4  1
    4     1     5  1
    5     1     6  1
    6     2     7  1
    7     2     8  1
    8     3     9  1
    9     4    10  1
@<TRIPOS>SUBSTRUCTURE
1 MOL         1 TEMP              0 ****  ****    0 ROOT

@<TRIPOS>MOLECULE
MOL
   10    9    1    0    0
SMALL
bcc


@<TRIPOS>ATOM
   1   C1        0.6360    1.3470    0.4890   c3 1 MOL  0.1274
   2   C2        0.0250   -0.0490    0.2740   c3 1 MOL  0.1274
   3   O1        1.0580   -1.0030    0.0580   oh 1 MOL -0.6040
   4   O2        0.8495    1.5751    1.8771   oh 1 MOL -0.6040
   5   H1        1.5922    1.4198   -0.0335   h1 1 MOL  0.0357
   6   H2       -0.0389    2.1131    0.1022   h1 1 MOL  0.0357
   7   H3       -0.6350   -0.0380   -0.5960   h1 1 MOL  0.0357
   8   H4       -0.5520   -0.3440    1.1540   h1 1 MOL  0.0357
   9   H5        0.5890   -1.8550   -0.0690   ho 1 MOL  0.4050
  10   H6        1.2362    2.4742    1.9255   ho 1 MOL  0.4050
@<TRIPOS>BOND
    1     1     2  1
    2     2     3  1
    3     1     4  1
    4     1     5  1
    5     1     6  1
    6     2     7  1
    7     2     8  1
    8     3     9  1
    9     4    10  1
@<TRIPOS>SUBSTRUCTURE
1 MOL         1 TEMP              0 ****  ****    0 ROOT

@<TRIPOS>MOLECULE
MOL
   10    9    1    0    0
SMALL
bcc


@<TRIPOS>ATOM
   1   C1        0.6360    1.3470    0.4890   c3 1 MOL  0.1274
   2   C2        0.0250   -0.0490    0.2740   c3 1 MOL  0.1274
   3   O1        1.0580   -1.0030    0.0580   oh 1 MOL -0.6040
   4   O2        0.8709    1.5660    1.8751   oh 1 MOL -0.6040
   5   H1        1.5837    1.4258   -0.0480   h1 1 MOL  0.0357
   6   H2       -0.0467    2.1141    0.1182   h1 1 MOL  0.0357
   7   H3       -0.6350   -0.0380   -0.5960   h1 1 MOL  0.0357
   8   H4       -0.5520   -0.3440    1.1540   h1 1 MOL  0.0357
   9   H5        0.5890   -1.8550   -0.0690   ho 1 MOL  0.4050
  10   H6        1.2561    2.4658    1.9237   ho 1 MOL  0.4050
@<TRIPOS>BOND
    1     1     2  1
    2     2     3  1
    3     1     4  1
    4     1     5  1
    5     1     6  1
    6     2     7  1
    7     2     8  1
    8     3     9  1
    9     4    10  1
@<TRIPOS>SUBSTRUCTURE
1 MOL         1 TEMP              0 ****  ****    0 ROOT

@<TRIPOS>MOLECULE
MOL
   10    9    1    0    0
SMALL
bcc


@<TRIPOS>ATOM
   1   C1        0.6360    1.3470    0.4890   c3 1 MOL  0.1274
   2   C2        0.0250   -0.0490    0.2740   c3 1 MOL  0.1274
   3   O1        1.0580   -1.0030    0.0580   oh 1 MOL -0.6040
   4   O2        0.8924    1.5570    1.8726   oh 1 MOL -0.6040
   5   H1        1.5748    1.4319   -0.0624   h1 1 MOL  0.0357
   6   H2       -0.0543    2.1149    0.1344   h1 1 MOL  0.0357
   7   H3       -0.6350   -0.0380   -0.5960   h1 1 MOL  0.0357
   8   H4       -0.5520   -0.3440    1.1540   h1 1 MOL  0.0357
   9   H5        0.5890   -1.8550   -0.0690   ho 1 MOL  0.4050
  10   H6        1.2761    2.4574    1.9214   ho 1 MOL  0.4050
@<TRIPOS>BOND
    1     1     2  1
    2     2     3  1
    3     1     4  1
    4     1     5  1
    5     1     6  1
    6     2     7  1
    7     2     8  1
    8     3     9  1
    9     4    10  1
@<TRIPOS>SUBSTRUCTURE
1 MOL         1 TEMP              0 ****  ****    0 ROOT

@<TRIPOS>MOLECULE
MOL
   10    9    1    0    0
SMALL
bcc


@<TRIPOS>ATOM
   1   C1        0.6360    1.3470    0.4890   c3 1 MOL  0.1274
   2   C2        0.0250   -0.0490    0.2740   c3 1 MOL  0.1274
   3   O1        1.0580   -1.0030    0.0580   oh 1 MOL -0.6040
   4   O2        0.9137    1.5481    1.8698   oh 1 MOL -0.6040
   5   H1        1.5658    1.4380   -0.0766   h1 1 MOL  0.0357
   6   H2       -0.0617    2.1156    0.1507   h1 1 MOL  0.0357
   7   H3       -0.6350   -0.0380   -0.5960   h1 1 MOL  0.0357
   8   H4       -0.5520   -0.3440    1.1540   h1 1 MOL  0.0357
   9   H5        0.5890   -1.8550   -0.0690   ho 1 MOL  0.4050
  10   H6        1.2961    2.4490    1.9188   ho 1 MOL  0.4050
@<TRIPOS>BOND
    1     1     2  1
    2     2     3  1
    3     1     4  1
    4     1     5  1
    5     1     6  1
    6     2     7  1
    7     2     8  1
    8     3     9  1
    9     4    10  1
@<TRIPOS>SUBSTRUCTURE
1 MOL         1 TEMP              0 ****  ****    0 ROOT

@<TRIPOS>MOLECULE
MOL
   10    9    1    0    0
SMALL
bcc


@<TRIPOS>ATOM
   1   C1        0.6360    1.3470    0.4890   c3 1 MOL  0.1274
   2   C2        0.0250   -0.0490    0.2740   c3 1 MOL  0.1274
   3   O1        1.0580   -1.0030    0.0580   oh 1 MOL -0.6040
   4   O2        0.9351    1.5392    1.8666   oh 1 MOL -0.6040
   5   H1        1.5565    1.4442   -0.0906   h1 1 MOL  0.0357
   6   H2       -0.0688    2.1162    0.1672   h1 1 MOL  0.0357
   7   H3       -0.6350   -0.0380   -0.5960   h1 1 MOL  0.0357
   8   H4       -0.5520   -0.3440    1.1540   h1 1 MOL  0.0357
   9   H5        0.5890   -1.8550   -0.0690   ho 1 MOL  0.4050
  10   H6        1.3160    2.4408    1.9158   ho 1 MOL  0.4050
@<TRIPOS>BOND
    1     1     2  1
    2     2     3  1
    3     1     4  1
    4     1     5  1
    5     1     6  1
    6     2     7  1
    7     2     8  1
    8     3     9  1
    9     4    10  1
@<TRIPOS>SUBSTRUCTURE
1 MOL         1 TEMP              0 ****  ****    0 ROOT

@<TRIPOS>MOLECULE
MOL
   10    9    1    0    0
SMALL
bcc


@<TRIPOS>ATOM
   1   C1        0.6360    1.3470    0.4890   c3 1 MOL  0.1274
   2   C2        0.0250   -0.0490    0.2740   c3 1 MOL  0.1274
   3   O1        1.0580   -1.0030    0.0580   oh 1 MOL -0.6040
   4   O2        0.9564    1.5304    1.8630   oh 1 MOL -0.6040
   5   H1        1.5470    1.4505   -0.1044   h1 1 MOL  0.0357
   6   H2       -0.0756    2.1167    0.1837   h1 1 MOL  0.0357
   7   H3       -0.6350   -0.0380   -0.5960   h1 1 MOL  0.0357
   8   H4       -0.5520   -0.3440    1.1540   h1 1 MOL  0.0357
   9   H5        0.5890   -1.8550   -0.0690   ho 1 MOL  0.4050
  10   H6        1.3359    2.4326    1.9124   ho 1 MOL  0.4050
@<TRIPOS>BOND
    1     1     2  1
    2     2     3  1
    3     1     4  1
    4     1     5  1
    5     1     6  1
    6     2     7  1
    7     2     8  1
    8     3     9  1
    9     4    10  1
@<TRIPOS>SUBSTRUCTURE
1 MOL         1 TEMP              0 ****  ****    0 ROOT

@<TRIPOS>MOLECULE
MOL
   10    9    1    0    0
SMALL
bcc


@<TRIPOS>ATOM
   1   C1        0.6360    1.3470    0.4890   c3 1 MOL  0.1274
   2   C2        0.0250   -0.0490    0.2740   c3 1 MOL  0.1274
   3   O1        1.0580   -1.0030    0.0580   oh 1 MOL -0.6040
   4   O2        0.9777    1.5217    1.8590   oh 1 MOL -0.6040
   5   H1        1.5372    1.4569   -0.1180   h1 1 MOL  0.0357
   6   H2       -0.0822    2.1170    0.2004   h1 1 MOL  0.0357
   7   H3       -0.6350   -0.0380   -0.5960   h1 1 MOL  0.0357
   8   H4       -0.5520   -0.3440    1.1540   h1 1 MOL  0.0357
   9   H5        0.5890   -1.8550   -0.0690   ho 1 MOL  0.4050
  10   H6        1.3558    2.4244    1.9087   ho 1 MOL  0.4050
@<TRIPOS>BOND
    1     1     2  1
    2     2     3  1
    3     1     4  1
    4     1     5  1
    5     1     6  1
    6     2     7  1
    7     2     8  1
    8     3     9  1
    9     4    10  1
@<TRIPOS>SUBSTRUCTURE
1 MOL         1 TEMP              0 ****  ****    0 ROOT

@<TRIPOS>MOLECULE
MOL
   10    9    1    0    0
SMALL
bcc


@<TRIPOS>ATOM
   1   C1        0.6360    1.3470    0.4890   c3 1 MOL  0.1274
   2   C2        0.0250   -0.0490    0.2740   c3 1 MOL  0.1274
   3   O1        1.0580   -1.0030    0.0580   oh 1 MOL -0.6040
   4   O2        0.9989    1.5131    1.8546   oh 1 MOL -0.6040
   5   H1        1.5272    1.4633   -0.1314   h1 1 MOL  0.0357
   6   H2       -0.0885    2.1172    0.2171   h1 1 MOL  0.0357
   7   H3       -0.6350   -0.0380   -0.5960   h1 1 MOL  0.0357
   8   H4       -0.5520   -0.3440    1.1540   h1 1 MOL  0.0357
   9   H5        0.5890   -1.8550   -0.0690   ho 1 MOL  0.4050
  10   H6        1.3756    2.4164    1.9046   ho 1 MOL  0.4050
@<TRIPOS>BOND
    1     1     2  1
    2     2     3  1
    3     1     4  1
    4     1     5  1
    5     1     6  1
    6     2     7  1
    7     2     8  1
    8     3     9  1
    9     4    10  1
@<TRIPOS>SUBSTRUCTURE
1 MOL         1 TEMP              0 ****  ****    0 ROOT

@<TRIPOS>MOLECULE
MOL
   10    9    1    0    0
SMALL
bcc


@<TRIPOS>ATOM
   1   C1        0.6360    1.3470    0.4890   c3 1 MOL  0.1274
   2   C2        0.0250   -0.0490    0.2740   c3 1 MOL  0.1274
   3   O1        1.0580   -1.0030    0.0580   oh 1 MOL -0.6040
   4   O2        1.0201    1.5046    1.8498   oh 1 MOL -0.6040
   5   H1        1.5170    1.4699   -0.1446   h1 1 MOL  0.0357
   6   H2       -0.0946    2.1172    0.2340   h1 1 MOL  0.0357
   7   H3       -0.6350   -0.0380   -0.5960   h1 1 MOL  0.0357
   8   H4       -0.5520   -0.3440    1.1540   h1 1 MOL  0.0357
   9   H5        0.5890   -1.8550   -0.0690   ho 1 MOL  0.4050
  10   H6        1.3954    2.4084    1.9001   ho 1 MOL  0.4050
@<TRIPOS>BOND
    1     1     2  1
    2     2     3  1
    3     1     4  1
    4     1     5  1
    5     1     6  1
    6     2     7  1
    7     2     8  1
    8     3     9  1
    9     4    10  1
@<TRIPOS>SUBSTRUCTURE
1 MOL         1 TEMP              0 ****  ****    0 ROOT

@<TRIPOS>MOLECULE
MOL
   10    9    1    0    0
SMALL
bcc


@<TRIPOS>ATOM
   1   C1        0.6360    1.3470    0.4890   c3 1 MOL  0.1274
   2   C2        0.0250   -0.0490    0.2740   c3 1 MOL  0.1274
   3   O1        1.0580   -1.0030    0.0580   oh 1 MOL -0.6040
   4   O2        1.0413    1.4961    1.8447   oh 1 MOL -0.6040
   5   H1        1.5065    1.4764   -0.1576   h1 1 MOL  0.0357
   6   H2       -0.1004    2.1171    0.2509   h1 1 MOL  0.0357
   7   H3       -0.6350   -0.0380   -0.5960   h1 1 MOL  0.0357
   8   H4       -0.5520   -0.3440    1.1540   h1 1 MOL  0.0357
   9   H5        0.5890   -1.8550   -0.0690   ho 1 MOL  0.4050
  10   H6        1.4151    2.4006    1.8952   ho 1 MOL  0.4050
@<TRIPOS>BOND
    1     1     2  1
    2     2     3  1
    3     1     4  1
    4     1     5  1
    5     1     6  1
    6     2     7  1
    7     2     8  1
    8     3     9  1
    9     4    10  1
@<TRIPOS>SUBSTRUCTURE
1 MOL         1 TEMP              0 ****  ****    0 ROOT

@<TRIPOS>MOLECULE
MOL
   10    9    1    0    0
SMALL
bcc


@<TRIPOS>ATOM
   1   C1        0.6360    1.3470    0.4890   c3 1 MOL  0.1274
   2   C2        0.0250   -0.0490    0.2740   c3 1 MOL  0.1274
   3   O1        1.0580   -1.0030    0.0580   oh 1 MOL -0.6040
   4   O2        1.0623    1.4878    1.8391   oh 1 MOL -0.6040
   5   H1        1.4959    1.4831   -0.1704   h1 1 MOL  0.0357
   6   H2       -0.1059    2.1169    0.2680   h1 1 MOL  0.0357
   7   H3       -0.6350   -0.0380   -0.5960   h1 1 MOL  0.0357
   8   H4       -0.5520   -0.3440    1.1540   h1 1 MOL  0.0357
   9   H5        0.5890   -1.8550   -0.0690   ho 1 MOL  0.4050
  10   H6        1.4348    2.3927    1.8900   ho 1 MOL  0.4050
@<TRIPOS>BOND
    1     1     2  1
    2     2     3  1
    3     1     4  1
    4     1     5  1
    5     1     6  1
    6     2     7  1
    7     2     8  1
    8     3     9  1
    9     4    10  1
@<TRIPOS>SUBSTRUCTURE
1 MOL         1 TEMP              0 ****  ****    0 ROOT

@<TRIPOS>MOLECULE
MOL
   10    9    1    0    0
SMALL
bcc


@<TRIPOS>ATOM
   1   C1        0.6360    1.3470    0.4890   c3 1 MOL  0.1274
   2   C2        0.0250   -0.0490    0.2740   c3 1 MOL  0.1274
   3   O1        1.0580   -1.0030    0.0580   oh 1 MOL -0.6040
   4   O2        1.0833    1.4795    1.8331   oh 1 MOL -0.6040
   5   H1        1.4850    1.4898   -0.1829   h1 1 MOL  0.0357
   6   H2       -0.1111    2.1166    0.2851   h1 1 MOL  0.0357
   7   H3       -0.6350   -0.0380   -0.5960   h1 1 MOL  0.0357
   8   H4       -0.5520   -0.3440    1.1540   h1 1 MOL  0.0357
   9   H5        0.5890   -1.8550   -0.0690   ho 1 MOL  0.4050
  10   H6        1.4544    2.3850    1.8844   ho 1 MOL  0.4050
@<TRIPOS>BOND
    1     1     2  1
    2     2     3  1
    3     1     4  1
    4     1     5  1
    5     1     6  1
    6     2     7  1
    7     2     8  1
    8     3     9  1
    9     4    10  1
@<TRIPOS>SUBSTRUCTURE
1 MOL         1 TEMP              0 ****  ****    0 ROOT

@<TRIPOS>MOLECULE
MOL
   10    9    1    0    0
SMALL
bcc


@<TRIPOS>ATOM
   1   C1        0.6360    1.3470    0.4890   c3 1 MOL  0.1274
   2   C2        0.0250   -0.0490    0.2740   c3 1 MOL  0.1274
   3   O1        1.0580   -1.0030    0.0580   oh 1 MOL -0.6040
   4   O2        1.1042    1.4713    1.8268   oh 1 MOL -0.6040
   5   H1        1.4739    1.4965   -0.1953   h1 1 MOL  0.0357
   6   H2       -0.1161    2.1161    0.3023   h1 1 MOL  0.0357
   7   H3       -0.6350   -0.0380   -0.5960   h1 1 MOL  0.0357
   8   H4       -0.5520   -0.3440    1.1540   h1 1 MOL  0.0357
   9   H5        0.5890   -1.8550   -0.0690   ho 1 MOL  0.4050
  10   H6        1.4739    2.3774    1.8785   ho 1 MOL  0.4050
@<TRIPOS>BOND
    1     1     2  1
    2     2     3  1
    3     1     4  1
    4     1     5  1
    5     1     6  1
    6     2     7  1
    7     2     8  1
    8     3     9  1
    9     4    10  1
@<TRIPOS>SUBSTRUCTURE
1 MOL         1 TEMP              0 ****  ****    0 ROOT

@<TRIPOS>MOLECULE
MOL
   10    9    1    0    0
SMALL
bcc


@<TRIPOS>ATOM
   1   C1        0.6360    1.3470    0.4890   c3 1 MOL  0.1274
   2   C2        0.0250   -0.0490    0.2740   c3 1 MOL  0.1274
   3   O1        1.0580   -1.0030    0.0580   oh 1 MOL -0.6040
   4   O2        1.1251    1.4633    1.8200   oh 1 MOL -0.6040
   5   H1        1.4626    1.5033   -0.2074   h1 1 MOL  0.0357
   6   H2       -0.1208    2.1155    0.3196   h1 1 MOL  0.0357
   7   H3       -0.6350   -0.0380   -0.5960   h1 1 MOL  0.0357
   8   H4       -0.5520   -0.3440    1.1540   h1 1 MOL  0.0357
   9   H5        0.5890   -1.8550   -0.0690   ho 1 MOL  0.4050
  10   H6        1.4934    2.3699    1.8722   ho 1 MOL  0.4050
@<TRIPOS>BOND
    1     1     2  1
    2     2     3  1
    3     1     4  1
    4     1     5  1
    5     1     6  1
    6     2     7  1
    7     2     8  1
    8     3     9  1
    9     4    10  1
@<TRIPOS>SUBSTRUCTURE
1 MOL         1 TEMP              0 ****  ****    0 ROOT

@<TRIPOS>MOLECULE
MOL
   10    9    1    0    0
SMALL
bcc


@<TRIPOS>ATOM
   1   C1        0.6360    1.3470    0.4890   c3 1 MOL  0.1274
   2   C2        0.0250   -0.0490    0.2740   c3 1 MOL  0.1274
   3   O1        1.0580   -1.0030    0.0580   oh 1 MOL -0.6040
   4   O2        1.1458    1.4553    1.8129   oh 1 MOL -0.6040
   5   H1        1.4511    1.5102   -0.2193   h1 1 MOL  0.0357
   6   H2       -0.1252    2.1148    0.3369   h1 1 MOL  0.0357
   7   H3       -0.6350   -0.0380   -0.5960   h1 1 MOL  0.0357
   8   H4       -0.5520   -0.3440    1.1540   h1 1 MOL  0.0357
   9   H5        0.5890   -1.8550   -0.0690   ho 1 MOL  0.4050
  10   H6        1.5127    2.3624    1.8655   ho 1 MOL  0.4050
@<TRIPOS>BOND
    1     1     2  1
    2     2     3  1
    3     1     4  1
    4     1     5  1
    5     1     6  1
    6     2     7  1
    7     2     8  1
    8     3     9  1
    9     4    10  1
@<TRIPOS>SUBSTRUCTURE
1 MOL         1 TEMP              0 ****  ****    0 ROOT

@<TRIPOS>MOLECULE
MOL
   10    9    1    0    0
SMALL
bcc


@<TRIPOS>ATOM
   1   C1        0.6360    1.3470    0.4890   c3 1 MOL  0.1274
   2   C2        0.0250   -0.0490    0.2740   c3 1 MOL  0.1274
   3   O1        1.0580   -1.0030    0.0580   oh 1 MOL -0.6040
   4   O2        1.1665    1.4474    1.8054   oh 1 MOL -0.6040
   5   H1        1.4394    1.5171   -0.2309   h1 1 MOL  0.0357
   6   H2       -0.1293    2.1139    0.3543   h1 1 MOL  0.0357
   7   H3       -0.6350   -0.0380   -0.5960   h1 1 MOL  0.0357
   8   H4       -0.5520   -0.3440    1.1540   h1 1 MOL  0.0357
   9   H5        0.5890   -1.8550   -0.0690   ho 1 MOL  0.4050
  10   H6        1.5320    2.3551    1.8585   ho 1 MOL  0.4050
@<TRIPOS>BOND
    1     1     2  1
    2     2     3  1
    3     1     4  1
    4     1     5  1
    5     1     6  1
    6     2     7  1
    7     2     8  1
    8     3     9  1
    9     4    10  1
@<TRIPOS>SUBSTRUCTURE
1 MOL         1 TEMP              0 ****  ****    0 ROOT

@<TRIPOS>MOLECULE
MOL
   10    9    1    0    0
SMALL
bcc


@<TRIPOS>ATOM
   1   C1        0.6360    1.3470    0.4890   c3 1 MOL  0.1274
   2   C2        0.0250   -0.0490    0.2740   c3 1 MOL  0.1274
   3   O1        1.0580   -1.0030    0.0580   oh 1 MOL -0.6040
   4   O2        1.1870    1.4396    1.7975   oh 1 MOL -0.6040
   5   H1        1.4275    1.5241   -0.2423   h1 1 MOL  0.0357
   6   H2       -0.1332    2.1129    0.3718   h1 1 MOL  0.0357
   7   H3       -0.6350   -0.0380   -0.5960   h1 1 MOL  0.0357
   8   H4       -0.5520   -0.3440    1.1540   h1 1 MOL  0.0357
   9   H5        0.5890   -1.8550   -0.0690   ho 1 MOL  0.4050
  10   H6        1.5512    2.3478    1.8511   ho 1 MOL  0.4050
@<TRIPOS>BOND
    1     1     2  1
    2     2     3  1
    3     1     4  1
    4     1     5  1
    5     1     6  1
    6     2     7  1
    7     2     8  1
    8     3     9  1
    9     4    10  1
@<TRIPOS>SUBSTRUCTURE
1 MOL         1 TEMP              0 ****  ****    0 ROOT

@<TRIPOS>MOLECULE
MOL
   10    9    1    0    0
SMALL
bcc


@<TRIPOS>ATOM
   1   C1        0.6360    1.3470    0.4890   c3 1 MOL  0.1274
   2   C2        0.0250   -0.0490    0.2740   c3 1 MOL  0.1274
   3   O1        1.0580   -1.0030    0.0580   oh 1 MOL -0.6040
   4   O2        1.2074    1.4319    1.7892   oh 1 MOL -0.6040
   5   H1        1.4154    1.5311   -0.2535   h1 1 MOL  0.0357
   6   H2       -0.1368    2.1118    0.3893   h1 1 MOL  0.0357
   7   H3       -0.6350   -0.0380   -0.5960   h1 1 MOL  0.0357
   8   H4       -0.5520   -0.3440    1.1540   h1 1 MOL  0.0357
   9   H5        0.5890   -1.8550   -0.0690   ho 1 MOL  0.4050
  10   H6        1.5702    2.3406    1.8434   ho 1 MOL  0.4050
@<TRIPOS>BOND
    1     1     2  1
    2     2     3  1
    3     1     4  1
    4     1     5  1
    5     1     6  1
    6     2     7  1
    7     2     8  1
    8     3     9  1
    9     4    10  1
@<TRIPOS>SUBSTRUCTURE
1 MOL         1 TEMP              0 ****  ****    0 ROOT

@<TRIPOS>MOLECULE
MOL
   10    9    1    0    0
SMALL
bcc


@<TRIPOS>ATOM
   1   C1        0.6360    1.3470    0.4890   c3 1 MOL  0.1274
   2   C2        0.0250   -0.0490    0.2740   c3 1 MOL  0.1274
   3   O1        1.0580   -1.0030    0.0580   oh 1 MOL -0.6040
   4   O2        1.2278    1.4244    1.7806   oh 1 MOL -0.6040
   5   H1        1.4031    1.5382   -0.2645   h1 1 MOL  0.0357
   6   H2       -0.1401    2.1105    0.4068   h1 1 MOL  0.0357
   7   H3       -0.6350   -0.0380   -0.5960   h1 1 MOL  0.0357
   8   H4       -0.5520   -0.3440    1.1540   h1 1 MOL  0.0357
   9   H5        0.5890   -1.8550   -0.0690   ho 1 MOL  0.4050
  10   H6        1.5892    2.3336    1.8353   ho 1 MOL  0.4050
@<TRIPOS>BOND
    1     1     2  1
    2     2     3  1
    3     1     4  1
    4     1     5  1
    5     1     6  1
    6     2     7  1
    7     2     8  1
    8     3     9  1
    9     4    10  1
@<TRIPOS>SUBSTRUCTURE
1 MOL         1 TEMP              0 ****  ****    0 ROOT

@<TRIPOS>MOLECULE
MOL
   10    9    1    0    0
SMALL
bcc


@<TRIPOS>ATOM
   1   C1        0.6360    1.3470    0.4890   c3 1 MOL  0.1274
   2   C2        0.0250   -0.0490    0.2740   c3 1 MOL  0.1274
   3   O1        1.0580   -1.0030    0.0580   oh 1 MOL -0.6040
   4   O2        1.2480    1.4169    1.7715   oh 1 MOL -0.6040
   5   H1        1.3906    1.5453   -0.2752   h1 1 MOL  0.0357
   6   H2       -0.1431    2.1091    0.4244   h1 1 MOL  0.0357
   7   H3       -0.6350   -0.0380   -0.5960   h1 1 MOL  0.0357
   8   H4       -0.5520   -0.3440    1.1540   h1 1 MOL  0.0357
   9   H5        0.5890   -1.8550   -0.0690   ho 1 MOL  0.4050
  10   H6        1.6080    2.3266    1.8269   ho 1 MOL  0.4050
@<TRIPOS>BOND
    1     1     2  1
    2     2     3  1
    3     1     4  1
    4     1     5  1
    5     1     6  1
    6     2     7  1
    7     2     8  1
    8     3     9  1
    9     4    10  1
@<TRIPOS>SUBSTRUCTURE
1 MOL         1 TEMP              0 ****  ****    0 ROOT

@<TRIPOS>MOLECULE
MOL
   10    9    1    0    0
SMALL
bcc


@<TRIPOS>ATOM
   1   C1        0.6360    1.3470    0.4890   c3 1 MOL  0.1274
   2   C2        0.0250   -0.0490    0.2740   c3 1 MOL  0.1274
   3   O1        1.0580   -1.0030    0.0580   oh 1 MOL -0.6040
   4   O2        1.2680    1.4096    1.7622   oh 1 MOL -0.6040
   5   H1        1.3779    1.5524   -0.2856   h1 1 MOL  0.0357
   6   H2       -0.1459    2.1076    0.4421   h1 1 MOL  0.0357
   7   H3       -0.6350   -0.0380   -0.5960   h1 1 MOL  0.0357
   8   H4       -0.5520   -0.3440    1.1540   h1 1 MOL  0.0357
   9   H5        0.5890   -1.8550   -0.0690   ho 1 MOL  0.4050
  10   H6        1.6268    2.3198    1.8181   ho 1 MOL  0.4050
@<TRIPOS>BOND
    1     1     2  1
    2     2     3  1
    3     1     4  1
    4     1     5  1
    5     1     6  1
    6     2     7  1
    7     2     8  1
    8     3     9  1
    9     4    10  1
@<TRIPOS>SUBSTRUCTURE
1 MOL         1 TEMP              0 ****  ****    0 ROOT

@<TRIPOS>MOLECULE
MOL
   10    9    1    0    0
SMALL
bcc


@<TRIPOS>ATOM
   1   C1        0.6360    1.3470    0.4890   c3 1 MOL  0.1274
   2   C2        0.0250   -0.0490    0.2740   c3 1 MOL  0.1274
   3   O1        1.0580   -1.0030    0.0580   oh 1 MOL -0.6040
   4   O2        1.2880    1.4024    1.7524   oh 1 MOL -0.6040
   5   H1        1.3650    1.5596   -0.2958   h1 1 MOL  0.0357
   6   H2       -0.1483    2.1060    0.4597   h1 1 MOL  0.0357
   7   H3       -0.6350   -0.0380   -0.5960   h1 1 MOL  0.0357
   8   H4       -0.5520   -0.3440    1.1540   h1 1 MOL  0.0357
   9   H5        0.5890   -1.8550   -0.0690   ho 1 MOL  0.4050
  10   H6        1.6454    2.3131    1.8090   ho 1 MOL  0.4050
@<TRIPOS>BOND
    1     1     2  1
    2     2     3  1
    3     1     4  1
    4     1     5  1
    5     1     6  1
    6     2     7  1
    7     2     8  1
    8     3     9  1
    9     4    10  1
@<TRIPOS>SUBSTRUCTURE
1 MOL         1 TEMP              0 ****  ****    0 ROOT

@<TRIPOS>MOLECULE
MOL
   10    9    1    0    0
SMALL
bcc


@<TRIPOS>ATOM
   1   C1        0.6360    1.3470    0.4890   c3 1 MOL  0.1274
   2   C2        0.0250   -0.0490    0.2740   c3 1 MOL  0.1274
   3   O1        1.0580   -1.0030    0.0580   oh 1 MOL -0.6040
   4   O2        1.3078    1.3953    1.7423   oh 1 MOL -0.6040
   5   H1        1.3520    1.5669   -0.3057   h1 1 MOL  0.0357
   6   H2       -0.1505    2.1042    0.4774   h1 1 MOL  0.0357
   7   H3       -0.6350   -0.0380   -0.5960   h1 1 MOL  0.0357
   8   H4       -0.5520   -0.3440    1.1540   h1 1 MOL  0.0357
   9   H5        0.5890   -1.8550   -0.0690   ho 1 MOL  0.4050
  10   H6        1.6639    2.3064    1.7995   ho 1 MOL  0.4050
@<TRIPOS>BOND
    1     1     2  1
    2     2     3  1
    3     1     4  1
    4     1     5  1
    5     1     6  1
    6     2     7  1
    7     2     8  1
    8     3     9  1
    9     4    10  1
@<TRIPOS>SUBSTRUCTURE
1 MOL         1 TEMP              0 ****  ****    0 ROOT

@<TRIPOS>MOLECULE
MOL
   10    9    1    0    0
SMALL
bcc


@<TRIPOS>ATOM
   1   C1        0.6360    1.3470    0.4890   c3 1 MOL  0.1274
   2   C2        0.0250   -0.0490    0.2740   c3 1 MOL  0.1274
   3   O1        1.0580   -1.0030    0.0580   oh 1 MOL -0.6040
   4   O2        1.3274    1.3883    1.7318   oh 1 MOL -0.6040
   5   H1        1.3388    1.5741   -0.3154   h1 1 MOL  0.0357
   6   H2       -0.1524    2.1023    0.4951   h1 1 MOL  0.0357
   7   H3       -0.6350   -0.0380   -0.5960   h1 1 MOL  0.0357
   8   H4       -0.5520   -0.3440    1.1540   h1 1 MOL  0.0357
   9   H5        0.5890   -1.8550   -0.0690   ho 1 MOL  0.4050
  10   H6        1.6822    2.2999    1.7897   ho 1 MOL  0.4050
@<TRIPOS>BOND
    1     1     2  1
    2     2     3  1
    3     1     4  1
    4     1     5  1
    5     1     6  1
    6     2     7  1
    7     2     8  1
    8     3     9  1
    9     4    10  1
@<TRIPOS>SUBSTRUCTURE
1 MOL         1 TEMP              0 ****  ****    0 ROOT

@<TRIPOS>MOLECULE
MOL
   10    9    1    0    0
SMALL
bcc


@<TRIPOS>ATOM
   1   C1        0.6360    1.3470    0.4890   c3 1 MOL  0.1274
   2   C2        0.0250   -0.0490    0.2740   c3 1 MOL  0.1274
   3   O1        1.0580   -1.0030    0.0580   oh 1 MOL -0.6040
   4   O2        1.3469    1.3814    1.7210   oh 1 MOL -0.6040
   5   H1        1.3254    1.5815   -0.3249   h1 1 MOL  0.0357
   6   H2       -0.1540    2.1002    0.5128   h1 1 MOL  0.0357
   7   H3       -0.6350   -0.0380   -0.5960   h1 1 MOL  0.0357
   8   H4       -0.5520   -0.3440    1.1540   h1 1 MOL  0.0357
   9   H5        0.5890   -1.8550   -0.0690   ho 1 MOL  0.4050
  10   H6        1.7004    2.2935    1.7796   ho 1 MOL  0.4050
@<TRIPOS>BOND
    1     1     2  1
    2     2     3  1
    3     1     4  1
    4     1     5  1
    5     1     6  1
    6     2     7  1
    7     2     8  1
    8     3     9  1
    9     4    10  1
@<TRIPOS>SUBSTRUCTURE
1 MOL         1 TEMP              0 ****  ****    0 ROOT

@<TRIPOS>MOLECULE
MOL
   10    9    1    0    0
SMALL
bcc


@<TRIPOS>ATOM
   1   C1        0.6360    1.3470    0.4890   c3 1 MOL  0.1274
   2   C2        0.0250   -0.0490    0.2740   c3 1 MOL  0.1274
   3   O1        1.0580   -1.0030    0.0580   oh 1 MOL -0.6040
   4   O2        1.3663    1.3747    1.7098   oh 1 MOL -0.6040
   5   H1        1.3119    1.5888   -0.3340   h1 1 MOL  0.0357
   6   H2       -0.1553    2.0981    0.5306   h1 1 MOL  0.0357
   7   H3       -0.6350   -0.0380   -0.5960   h1 1 MOL  0.0357
   8   H4       -0.5520   -0.3440    1.1540   h1 1 MOL  0.0357
   9   H5        0.5890   -1.8550   -0.0690   ho 1 MOL  0.4050
  10   H6        1.7185    2.2872    1.7691   ho 1 MOL  0.4050
@<TRIPOS>BOND
    1     1     2  1
    2     2     3  1
    3     1     4  1
    4     1     5  1
    5     1     6  1
    6     2     7  1
    7     2     8  1
    8     3     9  1
    9     4    10  1
@<TRIPOS>SUBSTRUCTURE
1 MOL         1 TEMP              0 ****  ****    0 ROOT

@<TRIPOS>MOLECULE
MOL
   10    9    1    0    0
SMALL
bcc


@<TRIPOS>ATOM
   1   C1        0.6360    1.3470    0.4890   c3 1 MOL  0.1274
   2   C2        0.0250   -0.0490    0.2740   c3 1 MOL  0.1274
   3   O1        1.0580   -1.0030    0.0580   oh 1 MOL -0.6040
   4   O2        1.3854    1.3681    1.6982   oh 1 MOL -0.6040
   5   H1        1.2982    1.5962   -0.3429   h1 1 MOL  0.0357
   6   H2       -0.1563    2.0958    0.5483   h1 1 MOL  0.0357
   7   H3       -0.6350   -0.0380   -0.5960   h1 1 MOL  0.0357
   8   H4       -0.5520   -0.3440    1.1540   h1 1 MOL  0.0357
   9   H5        0.5890   -1.8550   -0.0690   ho 1 MOL  0.4050
  10   H6        1.7363    2.2810    1.7584   ho 1 MOL  0.4050
@<TRIPOS>BOND
    1     1     2  1
    2     2     3  1
    3     1     4  1
    4     1     5  1
    5     1     6  1
    6     2     7  1
    7     2     8  1
    8     3     9  1
    9     4    10  1
@<TRIPOS>SUBSTRUCTURE
1 MOL         1 TEMP              0 ****  ****    0 ROOT

@<TRIPOS>MOLECULE
MOL
   10    9    1    0    0
SMALL
bcc


@<TRIPOS>ATOM
   1   C1        0.6360    1.3470    0.4890   c3 1 MOL  0.1274
   2   C2        0.0250   -0.0490    0.2740   c3 1 MOL  0.1274
   3   O1        1.0580   -1.0030    0.0580   oh 1 MOL -0.6040
   4   O2        1.4044    1.3616    1.6863   oh 1 MOL -0.6040
   5   H1        1.2843    1.6035   -0.3515   h1 1 MOL  0.0357
   6   H2       -0.1571    2.0934    0.5660   h1 1 MOL  0.0357
   7   H3       -0.6350   -0.0380   -0.5960   h1 1 MOL  0.0357
   8   H4       -0.5520   -0.3440    1.1540   h1 1 MOL  0.0357
   9   H5        0.5890   -1.8550   -0.0690   ho 1 MOL  0.4050
  10   H6        1.7541    2.2750    1.7472   ho 1 MOL  0.4050
@<TRIPOS>BOND
    1     1     2  1
    2     2     3  1
    3     1     4  1
    4     1     5  1
    5     1     6  1
    6     2     7  1
    7     2     8  1
    8     3     9  1
    9     4    10  1
@<TRIPOS>SUBSTRUCTURE
1 MOL         1 TEMP              0 ****  ****    0 ROOT

@<TRIPOS>MOLECULE
MOL
   10    9    1    0    0
SMALL
bcc


@<TRIPOS>ATOM
   1   C1        0.6360    1.3470    0.4890   c3 1 MOL  0.1274
   2   C2        0.0250   -0.0490    0.2740   c3 1 MOL  0.1274
   3   O1        1.0580   -1.0030    0.0580   oh 1 MOL -0.6040
   4   O2        1.4233    1.3552    1.6741   oh 1 MOL -0.6040
   5   H1        1.2703    1.6110   -0.3599   h1 1 MOL  0.0357
   6   H2       -0.1575    2.0909    0.5838   h1 1 MOL  0.0357
   7   H3       -0.6350   -0.0380   -0.5960   h1 1 MOL  0.0357
   8   H4       -0.5520   -0.3440    1.1540   h1 1 MOL  0.0357
   9   H5        0.5890   -1.8550   -0.0690   ho 1 MOL  0.4050
  10   H6        1.7717    2.2691    1.7358   ho 1 MOL  0.4050
@<TRIPOS>BOND
    1     1     2  1
    2     2     3  1
    3     1     4  1
    4     1     5  1
    5     1     6  1
    6     2     7  1
    7     2     8  1
    8     3     9  1
    9     4    10  1
@<TRIPOS>SUBSTRUCTURE
1 MOL         1 TEMP              0 ****  ****    0 ROOT

@<TRIPOS>MOLECULE
MOL
   10    9    1    0    0
SMALL
bcc


@<TRIPOS>ATOM
   1   C1        0.6360    1.3470    0.4890   c3 1 MOL  0.1274
   2   C2        0.0250   -0.0490    0.2740   c3 1 MOL  0.1274
   3   O1        1.0580   -1.0030    0.0580   oh 1 MOL -0.6040
   4   O2        1.4419    1.3490    1.6615   oh 1 MOL -0.6040
   5   H1        1.2562    1.6184   -0.3680   h1 1 MOL  0.0357
   6   H2       -0.1577    2.0882    0.6015   h1 1 MOL  0.0357
   7   H3       -0.6350   -0.0380   -0.5960   h1 1 MOL  0.0357
   8   H4       -0.5520   -0.3440    1.1540   h1 1 MOL  0.0357
   9   H5        0.5890   -1.8550   -0.0690   ho 1 MOL  0.4050
  10   H6        1.7891    2.2632    1.7241   ho 1 MOL  0.4050
@<TRIPOS>BOND
    1     1     2  1
    2     2     3  1
    3     1     4  1
    4     1     5  1
    5     1     6  1
    6     2     7  1
    7     2     8  1
    8     3     9  1
    9     4    10  1
@<TRIPOS>SUBSTRUCTURE
1 MOL         1 TEMP              0 ****  ****    0 ROOT

@<TRIPOS>MOLECULE
MOL
   10    9    1    0    0
SMALL
bcc


@<TRIPOS>ATOM
   1   C1        0.6360    1.3470    0.4890   c3 1 MOL  0.1274
   2   C2        0.0250   -0.0490    0.2740   c3 1 MOL  0.1274
   3   O1        1.0580   -1.0030    0.0580   oh 1 MOL -0.6040
   4   O2        1.4604    1.3429    1.6486   oh 1 MOL -0.6040
   5   H1        1.2419    1.6259   -0.3758   h1 1 MOL  0.0357
   6   H2       -0.1576    2.0855    0.6192   h1 1 MOL  0.0357
   7   H3       -0.6350   -0.0380   -0.5960   h1 1 MOL  0.0357
   8   H4       -0.5520   -0.3440    1.1540   h1 1 MOL  0.0357
   9   H5        0.5890   -1.8550   -0.0690   ho 1 MOL  0.4050
  10   H6        1.8063    2.2576    1.7120   ho 1 MOL  0.4050
@<TRIPOS>BOND
    1     1     2  1
    2     2     3  1
    3     1     4  1
    4     1     5  1
    5     1     6  1
    6     2     7  1
    7     2     8  1
    8     3     9  1
    9     4    10  1
@<TRIPOS>SUBSTRUCTURE
1 MOL         1 TEMP              0 ****  ****    0 ROOT

@<TRIPOS>MOLECULE
MOL
   10    9    1    0    0
SMALL
bcc


@<TRIPOS>ATOM
   1   C1        0.6360    1.3470    0.4890   c3 1 MOL  0.1274
   2   C2        0.0250   -0.0490    0.2740   c3 1 MOL  0.1274
   3   O1        1.0580   -1.0030    0.0580   oh 1 MOL -0.6040
   4   O2        1.4787    1.3369    1.6354   oh 1 MOL -0.6040
   5   H1        1.2274    1.6333   -0.3833   h1 1 MOL  0.0357
   6   H2       -0.1572    2.0826    0.6368   h1 1 MOL  0.0357
   7   H3       -0.6350   -0.0380   -0.5960   h1 1 MOL  0.0357
   8   H4       -0.5520   -0.3440    1.1540   h1 1 MOL  0.0357
   9   H5        0.5890   -1.8550   -0.0690   ho 1 MOL  0.4050
  10   H6        1.8234    2.2520    1.6996   ho 1 MOL  0.4050
@<TRIPOS>BOND
    1     1     2  1
    2     2     3  1
    3     1     4  1
    4     1     5  1
    5     1     6  1
    6     2     7  1
    7     2     8  1
    8     3     9  1
    9     4    10  1
@<TRIPOS>SUBSTRUCTURE
1 MOL         1 TEMP              0 ****  ****    0 ROOT

@<TRIPOS>MOLECULE
MOL
   10    9    1    0    0
SMALL
bcc


@<TRIPOS>ATOM
   1   C1        0.6360    1.3470    0.4890   c3 1 MOL  0.1274
   2   C2        0.0250   -0.0490    0.2740   c3 1 MOL  0.1274
   3   O1        1.0580   -1.0030    0.0580   oh 1 MOL -0.6040
   4   O2        1.4967    1.3311    1.6218   oh 1 MOL -0.6040
   5   H1        1.2129    1.6408   -0.3905   h1 1 MOL  0.0357
   6   H2       -0.1565    2.0795    0.6545   h1 1 MOL  0.0357
   7   H3       -0.6350   -0.0380   -0.5960   h1 1 MOL  0.0357
   8   H4       -0.5520   -0.3440    1.1540   h1 1 MOL  0.0357
   9   H5        0.5890   -1.8550   -0.0690   ho 1 MOL  0.4050
  10   H6        1.8402    2.2466    1.6870   ho 1 MOL  0.4050
@<TRIPOS>BOND
    1     1     2  1
    2     2     3  1
    3     1     4  1
    4     1     5  1
    5     1     6  1
    6     2     7  1
    7     2     8  1
    8     3     9  1
    9     4    10  1
@<TRIPOS>SUBSTRUCTURE
1 MOL         1 TEMP              0 ****  ****    0 ROOT

@<TRIPOS>MOLECULE
MOL
   10    9    1    0    0
SMALL
bcc


@<TRIPOS>ATOM
   1   C1        0.6360    1.3470    0.4890   c3 1 MOL  0.1274
   2   C2        0.0250   -0.0490    0.2740   c3 1 MOL  0.1274
   3   O1        1.0580   -1.0030    0.0580   oh 1 MOL -0.6040
   4   O2        1.5146    1.3254    1.6079   oh 1 MOL -0.6040
   5   H1        1.1982    1.6483   -0.3975   h1 1 MOL  0.0357
   6   H2       -0.1555    2.0764    0.6721   h1 1 MOL  0.0357
   7   H3       -0.6350   -0.0380   -0.5960   h1 1 MOL  0.0357
   8   H4       -0.5520   -0.3440    1.1540   h1 1 MOL  0.0357
   9   H5        0.5890   -1.8550   -0.0690   ho 1 MOL  0.4050
  10   H6        1.8569    2.2413    1.6740   ho 1 MOL  0.4050
@<TRIPOS>BOND
    1     1     2  1
    2     2     3  1
    3     1     4  1
    4     1     5  1
    5     1     6  1
    6     2     7  1
    7     2     8  1
    8     3     9  1
    9     4    10  1
@<TRIPOS>SUBSTRUCTURE
1 MOL         1 TEMP              0 ****  ****    0 ROOT

@<TRIPOS>MOLECULE
MOL
   10    9    1    0    0
SMALL
bcc


@<TRIPOS>ATOM
   1   C1        0.6360    1.3470    0.4890   c3 1 MOL  0.1274
   2   C2        0.0250   -0.0490    0.2740   c3 1 MOL  0.1274
   3   O1        1.0580   -1.0030    0.0580   oh 1 MOL -0.6040
   4   O2        1.5323    1.3199    1.5937   oh 1 MOL -0.6040
   5   H1        1.1833    1.6559   -0.4041   h1 1 MOL  0.0357
   6   H2       -0.1542    2.0731    0.6896   h1 1 MOL  0.0357
   7   H3       -0.6350   -0.0380   -0.5960   h1 1 MOL  0.0357
   8   H4       -0.5520   -0.3440    1.1540   h1 1 MOL  0.0357
   9   H5        0.5890   -1.8550   -0.0690   ho 1 MOL  0.4050
  10   H6        1.8734    2.2361    1.6607   ho 1 MOL  0.4050
@<TRIPOS>BOND
    1     1     2  1
    2     2     3  1
    3     1     4  1
    4     1     5  1
    5     1     6  1
    6     2     7  1
    7     2     8  1
    8     3     9  1
    9     4    10  1
@<TRIPOS>SUBSTRUCTURE
1 MOL         1 TEMP              0 ****  ****    0 ROOT

@<TRIPOS>MOLECULE
MOL
   10    9    1    0    0
SMALL
bcc


@<TRIPOS>ATOM
   1   C1        0.6360    1.3470    0.4890   c3 1 MOL  0.1274
   2   C2        0.0250   -0.0490    0.2740   c3 1 MOL  0.1274
   3   O1        1.0580   -1.0030    0.0580   oh 1 MOL -0.6040
   4   O2        1.5497    1.3145    1.5791   oh 1 MOL -0.6040
   5   H1        1.1684    1.6634   -0.4105   h1 1 MOL  0.0357
   6   H2       -0.1527    2.0698    0.7072   h1 1 MOL  0.0357
   7   H3       -0.6350   -0.0380   -0.5960   h1 1 MOL  0.0357
   8   H4       -0.5520   -0.3440    1.1540   h1 1 MOL  0.0357
   9   H5        0.5890   -1.8550   -0.0690   ho 1 MOL  0.4050
  10   H6        1.8897    2.2311    1.6471   ho 1 MOL  0.4050
@<TRIPOS>BOND
    1     1     2  1
    2     2     3  1
    3     1     4  1
    4     1     5  1
    5     1     6  1
    6     2     7  1
    7     2     8  1
    8     3     9  1
    9     4    10  1
@<TRIPOS>SUBSTRUCTURE
1 MOL         1 TEMP              0 ****  ****    0 ROOT

@<TRIPOS>MOLECULE
MOL
   10    9    1    0    0
SMALL
bcc


@<TRIPOS>ATOM
   1   C1        0.6360    1.3470    0.4890   c3 1 MOL  0.1274
   2   C2        0.0250   -0.0490    0.2740   c3 1 MOL  0.1274
   3   O1        1.0580   -1.0030    0.0580   oh 1 MOL -0.6040
   4   O2        1.5669    1.3092    1.5643   oh 1 MOL -0.6040
   5   H1        1.1533    1.6709   -0.4166   h1 1 MOL  0.0357
   6   H2       -0.1509    2.0663    0.7246   h1 1 MOL  0.0357
   7   H3       -0.6350   -0.0380   -0.5960   h1 1 MOL  0.0357
   8   H4       -0.5520   -0.3440    1.1540   h1 1 MOL  0.0357
   9   H5        0.5890   -1.8550   -0.0690   ho 1 MOL  0.4050
  10   H6        1.9057    2.2262    1.6332   ho 1 MOL  0.4050
@<TRIPOS>BOND
    1     1     2  1
    2     2     3  1
    3     1     4  1
    4     1     5  1
    5     1     6  1
    6     2     7  1
    7     2     8  1
    8     3     9  1
    9     4    10  1
@<TRIPOS>SUBSTRUCTURE
1 MOL         1 TEMP              0 ****  ****    0 ROOT

@<TRIPOS>MOLECULE
MOL
   10    9    1    0    0
SMALL
bcc


@<TRIPOS>ATOM
   1   C1        0.6360    1.3470    0.4890   c3 1 MOL  0.1274
   2   C2        0.0250   -0.0490    0.2740   c3 1 MOL  0.1274
   3   O1        1.0580   -1.0030    0.0580   oh 1 MOL -0.6040
   4   O2        1.5839    1.3041    1.5491   oh 1 MOL -0.6040
   5   H1        1.1381    1.6785   -0.4224   h1 1 MOL  0.0357
   6   H2       -0.1487    2.0627    0.7420   h1 1 MOL  0.0357
   7   H3       -0.6350   -0.0380   -0.5960   h1 1 MOL  0.0357
   8   H4       -0.5520   -0.3440    1.1540   h1 1 MOL  0.0357
   9   H5        0.5890   -1.8550   -0.0690   ho 1 MOL  0.4050
  10   H6        1.9216    2.2214    1.6191   ho 1 MOL  0.4050
@<TRIPOS>BOND
    1     1     2  1
    2     2     3  1
    3     1     4  1
    4     1     5  1
    5     1     6  1
    6     2     7  1
    7     2     8  1
    8     3     9  1
    9     4    10  1
@<TRIPOS>SUBSTRUCTURE
1 MOL         1 TEMP              0 ****  ****    0 ROOT

@<TRIPOS>MOLECULE
MOL
   10    9    1    0    0
SMALL
bcc


@<TRIPOS>ATOM
   1   C1        0.6360    1.3470    0.4890   c3 1 MOL  0.1274
   2   C2        0.0250   -0.0490    0.2740   c3 1 MOL  0.1274
   3   O1        1.0580   -1.0030    0.0580   oh 1 MOL -0.6040
   4   O2        1.6007    1.2992    1.5337   oh 1 MOL -0.6040
   5   H1        1.1228    1.6860   -0.4279   h1 1 MOL  0.0357
   6   H2       -0.1463    2.0589    0.7594   h1 1 MOL  0.0357
   7   H3       -0.6350   -0.0380   -0.5960   h1 1 MOL  0.0357
   8   H4       -0.5520   -0.3440    1.1540   h1 1 MOL  0.0357
   9   H5        0.5890   -1.8550   -0.0690   ho 1 MOL  0.4050
  10   H6        1.9373    2.2168    1.6047   ho 1 MOL  0.4050
@<TRIPOS>BOND
    1     1     2  1
    2     2     3  1
    3     1     4  1
    4     1     5  1
    5     1     6  1
    6     2     7  1
    7     2     8  1
    8     3     9  1
    9     4    10  1
@<TRIPOS>SUBSTRUCTURE
1 MOL         1 TEMP              0 ****  ****    0 ROOT

@<TRIPOS>MOLECULE
MOL
   10    9    1    0    0
SMALL
bcc


@<TRIPOS>ATOM
   1   C1        0.6360    1.3470    0.4890   c3 1 MOL  0.1274
   2   C2        0.0250   -0.0490    0.2740   c3 1 MOL  0.1274
   3   O1        1.0580   -1.0030    0.0580   oh 1 MOL -0.6040
   4   O2        1.6172    1.2944    1.5179   oh 1 MOL -0.6040
   5   H1        1.1074    1.6935   -0.4331   h1 1 MOL  0.0357
   6   H2       -0.1436    2.0551    0.7767   h1 1 MOL  0.0357
   7   H3       -0.6350   -0.0380   -0.5960   h1 1 MOL  0.0357
   8   H4       -0.5520   -0.3440    1.1540   h1 1 MOL  0.0357
   9   H5        0.5890   -1.8550   -0.0690   ho 1 MOL  0.4050
  10   H6        1.9527    2.2123    1.5899   ho 1 MOL  0.4050
@<TRIPOS>BOND
    1     1     2  1
    2     2     3  1
    3     1     4  1
    4     1     5  1
    5     1     6  1
    6     2     7  1
    7     2     8  1
    8     3     9  1
    9     4    10  1
@<TRIPOS>SUBSTRUCTURE
1 MOL         1 TEMP              0 ****  ****    0 ROOT

@<TRIPOS>MOLECULE
MOL
   10    9    1    0    0
SMALL
bcc


@<TRIPOS>ATOM
   1   C1        0.6360    1.3470    0.4890   c3 1 MOL  0.1274
   2   C2        0.0250   -0.0490    0.2740   c3 1 MOL  0.1274
   3   O1        1.0580   -1.0030    0.0580   oh 1 MOL -0.6040
   4   O2        1.6335    1.2897    1.5019   oh 1 MOL -0.6040
   5   H1        1.0919    1.7011   -0.4380   h1 1 MOL  0.0357
   6   H2       -0.1407    2.0511    0.7939   h1 1 MOL  0.0357
   7   H3       -0.6350   -0.0380   -0.5960   h1 1 MOL  0.0357
   8   H4       -0.5520   -0.3440    1.1540   h1 1 MOL  0.0357
   9   H5        0.5890   -1.8550   -0.0690   ho 1 MOL  0.4050
  10   H6        1.9679    2.2079    1.5750   ho 1 MOL  0.4050
@<TRIPOS>BOND
    1     1     2  1
    2     2     3  1
    3     1     4  1
    4     1     5  1
    5     1     6  1
    6     2     7  1
    7     2     8  1
    8     3     9  1
    9     4    10  1
@<TRIPOS>SUBSTRUCTURE
1 MOL         1 TEMP              0 ****  ****    0 ROOT

@<TRIPOS>MOLECULE
MOL
   10    9    1    0    0
SMALL
bcc


@<TRIPOS>ATOM
   1   C1        0.6360    1.3470    0.4890   c3 1 MOL  0.1274
   2   C2        0.0250   -0.0490    0.2740   c3 1 MOL  0.1274
   3   O1        1.0580   -1.0030    0.0580   oh 1 MOL -0.6040
   4   O2        1.6496    1.2852    1.4855   oh 1 MOL -0.6040
   5   H1        1.0764    1.7086   -0.4427   h1 1 MOL  0.0357
   6   H2       -0.1374    2.0471    0.8110   h1 1 MOL  0.0357
   7   H3       -0.6350   -0.0380   -0.5960   h1 1 MOL  0.0357
   8   H4       -0.5520   -0.3440    1.1540   h1 1 MOL  0.0357
   9   H5        0.5890   -1.8550   -0.0690   ho 1 MOL  0.4050
  10   H6        1.9829    2.2037    1.5597   ho 1 MOL  0.4050
@<TRIPOS>BOND
    1     1     2  1
    2     2     3  1
    3     1     4  1
    4     1     5  1
    5     1     6  1
    6     2     7  1
    7     2     8  1
    8     3     9  1
    9     4    10  1
@<TRIPOS>SUBSTRUCTURE
1 MOL         1 TEMP              0 ****  ****    0 ROOT

@<TRIPOS>MOLECULE
MOL
   10    9    1    0    0
SMALL
bcc


@<TRIPOS>ATOM
   1   C1        0.6360    1.3470    0.4890   c3 1 MOL  0.1274
   2   C2        0.0250   -0.0490    0.2740   c3 1 MOL  0.1274
   3   O1        1.0580   -1.0030    0.0580   oh 1 MOL -0.6040
   4   O2        1.6654    1.2808    1.4689   oh 1 MOL -0.6040
   5   H1        1.0607    1.7161   -0.4470   h1 1 MOL  0.0357
   6   H2       -0.1339    2.0429    0.8281   h1 1 MOL  0.0357
   7   H3       -0.6350   -0.0380   -0.5960   h1 1 MOL  0.0357
   8   H4       -0.5520   -0.3440    1.1540   h1 1 MOL  0.0357
   9   H5        0.5890   -1.8550   -0.0690   ho 1 MOL  0.4050
  10   H6        1.9976    2.1997    1.5442   ho 1 MOL  0.4050
@<TRIPOS>BOND
    1     1     2  1
    2     2     3  1
    3     1     4  1
    4     1     5  1
    5     1     6  1
    6     2     7  1
    7     2     8  1
    8     3     9  1
    9     4    10  1
@<TRIPOS>SUBSTRUCTURE
1 MOL         1 TEMP              0 ****  ****    0 ROOT

@<TRIPOS>MOLECULE
MOL
   10    9    1    0    0
SMALL
bcc


@<TRIPOS>ATOM
   1   C1        0.6360    1.3470    0.4890   c3 1 MOL  0.1274
   2   C2        0.0250   -0.0490    0.2740   c3 1 MOL  0.1274
   3   O1        1.0580   -1.0030    0.0580   oh 1 MOL -0.6040
   4   O2        1.6809    1.2766    1.4520   oh 1 MOL -0.6040
   5   H1        1.0449    1.7237   -0.4510   h1 1 MOL  0.0357
   6   H2       -0.1301    2.0386    0.8450   h1 1 MOL  0.0357
   7   H3       -0.6350   -0.0380   -0.5960   h1 1 MOL  0.0357
   8   H4       -0.5520   -0.3440    1.1540   h1 1 MOL  0.0357
   9   H5        0.5890   -1.8550   -0.0690   ho 1 MOL  0.4050
  10   H6        2.0121    2.1958    1.5284   ho 1 MOL  0.4050
@<TRIPOS>BOND
    1     1     2  1
    2     2     3  1
    3     1     4  1
    4     1     5  1
    5     1     6  1
    6     2     7  1
    7     2     8  1
    8     3     9  1
    9     4    10  1
@<TRIPOS>SUBSTRUCTURE
1 MOL         1 TEMP              0 ****  ****    0 ROOT

@<TRIPOS>MOLECULE
MOL
   10    9    1    0    0
SMALL
bcc


@<TRIPOS>ATOM
   1   C1        0.6360    1.3470    0.4890   c3 1 MOL  0.1274
   2   C2        0.0250   -0.0490    0.2740   c3 1 MOL  0.1274
   3   O1        1.0580   -1.0030    0.0580   oh 1 MOL -0.6040
   4   O2        1.6962    1.2726    1.4349   oh 1 MOL -0.6040
   5   H1        1.0291    1.7312   -0.4547   h1 1 MOL  0.0357
   6   H2       -0.1260    2.0342    0.8619   h1 1 MOL  0.0357
   7   H3       -0.6350   -0.0380   -0.5960   h1 1 MOL  0.0357
   8   H4       -0.5520   -0.3440    1.1540   h1 1 MOL  0.0357
   9   H5        0.5890   -1.8550   -0.0690   ho 1 MOL  0.4050
  10   H6        2.0264    2.1920    1.5124   ho 1 MOL  0.4050
@<TRIPOS>BOND
    1     1     2  1
    2     2     3  1
    3     1     4  1
    4     1     5  1
    5     1     6  1
    6     2     7  1
    7     2     8  1
    8     3     9  1
    9     4    10  1
@<TRIPOS>SUBSTRUCTURE
1 MOL         1 TEMP              0 ****  ****    0 ROOT

@<TRIPOS>MOLECULE
MOL
   10    9    1    0    0
SMALL
bcc


@<TRIPOS>ATOM
   1   C1        0.6360    1.3470    0.4890   c3 1 MOL  0.1274
   2   C2        0.0250   -0.0490    0.2740   c3 1 MOL  0.1274
   3   O1        1.0580   -1.0030    0.0580   oh 1 MOL -0.6040
   4   O2        1.7113    1.2687    1.4174   oh 1 MOL -0.6040
   5   H1        1.0132    1.7386   -0.4581   h1 1 MOL  0.0357
   6   H2       -0.1216    2.0297    0.8787   h1 1 MOL  0.0357
   7   H3       -0.6350   -0.0380   -0.5960   h1 1 MOL  0.0357
   8   H4       -0.5520   -0.3440    1.1540   h1 1 MOL  0.0357
   9   H5        0.5890   -1.8550   -0.0690   ho 1 MOL  0.4050
  10   H6        2.0404    2.1883    1.4961   ho 1 MOL  0.4050
@<TRIPOS>BOND
    1     1     2  1
    2     2     3  1
    3     1     4  1
    4     1     5  1
    5     1     6  1
    6     2     7  1
    7     2     8  1
    8     3     9  1
    9     4    10  1
@<TRIPOS>SUBSTRUCTURE
1 MOL         1 TEMP              0 ****  ****    0 ROOT

@<TRIPOS>MOLECULE
MOL
   10    9    1    0    0
SMALL
bcc


@<TRIPOS>ATOM
   1   C1        0.6360    1.3470    0.4890   c3 1 MOL  0.1274
   2   C2        0.0250   -0.0490    0.2740   c3 1 MOL  0.1274
   3   O1        1.0580   -1.0030    0.0580   oh 1 MOL -0.6040
   4   O2        1.7260    1.2650    1.3997   oh 1 MOL -0.6040
   5   H1        0.9972    1.7461   -0.4612   h1 1 MOL  0.0357
   6   H2       -0.1170    2.0251    0.8954   h1 1 MOL  0.0357
   7   H3       -0.6350   -0.0380   -0.5960   h1 1 MOL  0.0357
   8   H4       -0.5520   -0.3440    1.1540   h1 1 MOL  0.0357
   9   H5        0.5890   -1.8550   -0.0690   ho 1 MOL  0.4050
  10   H6        2.0542    2.1849    1.4796   ho 1 MOL  0.4050
@<TRIPOS>BOND
    1     1     2  1
    2     2     3  1
    3     1     4  1
    4     1     5  1
    5     1     6  1
    6     2     7  1
    7     2     8  1
    8     3     9  1
    9     4    10  1
@<TRIPOS>SUBSTRUCTURE
1 MOL         1 TEMP              0 ****  ****    0 ROOT

@<TRIPOS>MOLECULE
MOL
   10    9    1    0    0
SMALL
bcc


@<TRIPOS>ATOM
   1   C1        0.6360    1.3470    0.4890   c3 1 MOL  0.1274
   2   C2        0.0250   -0.0490    0.2740   c3 1 MOL  0.1274
   3   O1        1.0580   -1.0030    0.0580   oh 1 MOL -0.6040
   4   O2        1.7405    1.2614    1.3818   oh 1 MOL -0.6040
   5   H1        0.9811    1.7536   -0.4640   h1 1 MOL  0.0357
   6   H2       -0.1121    2.0204    0.9119   h1 1 MOL  0.0357
   7   H3       -0.6350   -0.0380   -0.5960   h1 1 MOL  0.0357
   8   H4       -0.5520   -0.3440    1.1540   h1 1 MOL  0.0357
   9   H5        0.5890   -1.8550   -0.0690   ho 1 MOL  0.4050
  10   H6        2.0677    2.1815    1.4628   ho 1 MOL  0.4050
@<TRIPOS>BOND
    1     1     2  1
    2     2     3  1
    3     1     4  1
    4     1     5  1
    5     1     6  1
    6     2     7  1
    7     2     8  1
    8     3     9  1
    9     4    10  1
@<TRIPOS>SUBSTRUCTURE
1 MOL         1 TEMP              0 ****  ****    0 ROOT

@<TRIPOS>MOLECULE
MOL
   10    9    1    0    0
SMALL
bcc


@<TRIPOS>ATOM
   1   C1        0.6360    1.3470    0.4890   c3 1 MOL  0.1274
   2   C2        0.0250   -0.0490    0.2740   c3 1 MOL  0.1274
   3   O1        1.0580   -1.0030    0.0580   oh 1 MOL -0.6040
   4   O2        1.7547    1.2580    1.3636   oh 1 MOL -0.6040
   5   H1        0.9650    1.7610   -0.4665   h1 1 MOL  0.0357
   6   H2       -0.1069    2.0156    0.9284   h1 1 MOL  0.0357
   7   H3       -0.6350   -0.0380   -0.5960   h1 1 MOL  0.0357
   8   H4       -0.5520   -0.3440    1.1540   h1 1 MOL  0.0357
   9   H5        0.5890   -1.8550   -0.0690   ho 1 MOL  0.4050
  10   H6        2.0809    2.1784    1.4458   ho 1 MOL  0.4050
@<TRIPOS>BOND
    1     1     2  1
    2     2     3  1
    3     1     4  1
    4     1     5  1
    5     1     6  1
    6     2     7  1
    7     2     8  1
    8     3     9  1
    9     4    10  1
@<TRIPOS>SUBSTRUCTURE
1 MOL         1 TEMP              0 ****  ****    0 ROOT

@<TRIPOS>MOLECULE
MOL
   10    9    1    0    0
SMALL
bcc


@<TRIPOS>ATOM
   1   C1        0.6360    1.3470    0.4890   c3 1 MOL  0.1274
   2   C2        0.0250   -0.0490    0.2740   c3 1 MOL  0.1274
   3   O1        1.0580   -1.0030    0.0580   oh 1 MOL -0.6040
   4   O2        1.7686    1.2547    1.3451   oh 1 MOL -0.6040
   5   H1        0.9489    1.7684   -0.4687   h1 1 MOL  0.0357
   6   H2       -0.1014    2.0107    0.9447   h1 1 MOL  0.0357
   7   H3       -0.6350   -0.0380   -0.5960   h1 1 MOL  0.0357
   8   H4       -0.5520   -0.3440    1.1540   h1 1 MOL  0.0357
   9   H5        0.5890   -1.8550   -0.0690   ho 1 MOL  0.4050
  10   H6        2.0939    2.1753    1.4286   ho 1 MOL  0.4050
@<TRIPOS>BOND
    1     1     2  1
    2     2     3  1
    3     1     4  1
    4     1     5  1
    5     1     6  1
    6     2     7  1
    7     2     8  1
    8     3     9  1
    9     4    10  1
@<TRIPOS>SUBSTRUCTURE
1 MOL         1 TEMP              0 ****  ****    0 ROOT

@<TRIPOS>MOLECULE
MOL
   10    9    1    0    0
SMALL
bcc


@<TRIPOS>ATOM
   1   C1        0.6360    1.3470    0.4890   c3 1 MOL  0.1274
   2   C2        0.0250   -0.0490    0.2740   c3 1 MOL  0.1274
   3   O1        1.0580   -1.0030    0.0580   oh 1 MOL -0.6040
   4   O2        1.7823    1.2516    1.3264   oh 1 MOL -0.6040
   5   H1        0.9326    1.7758   -0.4706   h1 1 MOL  0.0357
   6   H2       -0.0957    2.0057    0.9609   h1 1 MOL  0.0357
   7   H3       -0.6350   -0.0380   -0.5960   h1 1 MOL  0.0357
   8   H4       -0.5520   -0.3440    1.1540   h1 1 MOL  0.0357
   9   H5        0.5890   -1.8550   -0.0690   ho 1 MOL  0.4050
  10   H6        2.1066    2.1724    1.4111   ho 1 MOL  0.4050
@<TRIPOS>BOND
    1     1     2  1
    2     2     3  1
    3     1     4  1
    4     1     5  1
    5     1     6  1
    6     2     7  1
    7     2     8  1
    8     3     9  1
    9     4    10  1
@<TRIPOS>SUBSTRUCTURE
1 MOL         1 TEMP              0 ****  ****    0 ROOT

@<TRIPOS>MOLECULE
MOL
   10    9    1    0    0
SMALL
bcc


@<TRIPOS>ATOM
   1   C1        0.6360    1.3470    0.4890   c3 1 MOL  0.1274
   2   C2        0.0250   -0.0490    0.2740   c3 1 MOL  0.1274
   3   O1        1.0580   -1.0030    0.0580   oh 1 MOL -0.6040
   4   O2        1.7956    1.2487    1.3075   oh 1 MOL -0.6040
   5   H1        0.9164    1.7832   -0.4721   h1 1 MOL  0.0357
   6   H2       -0.0897    2.0006    0.9770   h1 1 MOL  0.0357
   7   H3       -0.6350   -0.0380   -0.5960   h1 1 MOL  0.0357
   8   H4       -0.5520   -0.3440    1.1540   h1 1 MOL  0.0357
   9   H5        0.5890   -1.8550   -0.0690   ho 1 MOL  0.4050
  10   H6        2.1191    2.1697    1.3934   ho 1 MOL  0.4050
@<TRIPOS>BOND
    1     1     2  1
    2     2     3  1
    3     1     4  1
    4     1     5  1
    5     1     6  1
    6     2     7  1
    7     2     8  1
    8     3     9  1
    9     4    10  1
@<TRIPOS>SUBSTRUCTURE
1 MOL         1 TEMP              0 ****  ****    0 ROOT

@<TRIPOS>MOLECULE
MOL
   10    9    1    0    0
SMALL
bcc


@<TRIPOS>ATOM
   1   C1        0.6360    1.3470    0.4890   c3 1 MOL  0.1274
   2   C2        0.0250   -0.0490    0.2740   c3 1 MOL  0.1274
   3   O1        1.0580   -1.0030    0.0580   oh 1 MOL -0.6040
   4   O2        1.8087    1.2459    1.2884   oh 1 MOL -0.6040
   5   H1        0.9001    1.7905   -0.4734   h1 1 MOL  0.0357
   6   H2       -0.0834    1.9954    0.9930   h1 1 MOL  0.0357
   7   H3       -0.6350   -0.0380   -0.5960   h1 1 MOL  0.0357
   8   H4       -0.5520   -0.3440    1.1540   h1 1 MOL  0.0357
   9   H5        0.5890   -1.8550   -0.0690   ho 1 MOL  0.4050
  10   H6        2.1313    2.1671    1.3756   ho 1 MOL  0.4050
@<TRIPOS>BOND
    1     1     2  1
    2     2     3  1
    3     1     4  1
    4     1     5  1
    5     1     6  1
    6     2     7  1
    7     2     8  1
    8     3     9  1
    9     4    10  1
@<TRIPOS>SUBSTRUCTURE
1 MOL         1 TEMP              0 ****  ****    0 ROOT

@<TRIPOS>MOLECULE
MOL
   10    9    1    0    0
SMALL
bcc


@<TRIPOS>ATOM
   1   C1        0.6360    1.3470    0.4890   c3 1 MOL  0.1274
   2   C2        0.0250   -0.0490    0.2740   c3 1 MOL  0.1274
   3   O1        1.0580   -1.0030    0.0580   oh 1 MOL -0.6040
   4   O2        1.8214    1.2433    1.2690   oh 1 MOL -0.6040
   5   H1        0.8838    1.7978   -0.4744   h1 1 MOL  0.0357
   6   H2       -0.0769    1.9901    1.0088   h1 1 MOL  0.0357
   7   H3       -0.6350   -0.0380   -0.5960   h1 1 MOL  0.0357
   8   H4       -0.5520   -0.3440    1.1540   h1 1 MOL  0.0357
   9   H5        0.5890   -1.8550   -0.0690   ho 1 MOL  0.4050
  10   H6        2.1432    2.1647    1.3575   ho 1 MOL  0.4050
@<TRIPOS>BOND
    1     1     2  1
    2     2     3  1
    3     1     4  1
    4     1     5  1
    5     1     6  1
    6     2     7  1
    7     2     8  1
    8     3     9  1
    9     4    10  1
@<TRIPOS>SUBSTRUCTURE
1 MOL         1 TEMP              0 ****  ****    0 ROOT

@<TRIPOS>MOLECULE
MOL
   10    9    1    0    0
SMALL
bcc


@<TRIPOS>ATOM
   1   C1        0.6360    1.3470    0.4890   c3 1 MOL  0.1274
   2   C2        0.0250   -0.0490    0.2740   c3 1 MOL  0.1274
   3   O1        1.0580   -1.0030    0.0580   oh 1 MOL -0.6040
   4   O2        1.8339    1.2409    1.2494   oh 1 MOL -0.6040
   5   H1        0.8674    1.8051   -0.4750   h1 1 MOL  0.0357
   6   H2       -0.0701    1.9847    1.0245   h1 1 MOL  0.0357
   7   H3       -0.6350   -0.0380   -0.5960   h1 1 MOL  0.0357
   8   H4       -0.5520   -0.3440    1.1540   h1 1 MOL  0.0357
   9   H5        0.5890   -1.8550   -0.0690   ho 1 MOL  0.4050
  10   H6        2.1548    2.1625    1.3392   ho 1 MOL  0.4050
@<TRIPOS>BOND
    1     1     2  1
    2     2     3  1
    3     1     4  1
    4     1     5  1
    5     1     6  1
    6     2     7  1
    7     2     8  1
    8     3     9  1
    9     4    10  1
@<TRIPOS>SUBSTRUCTURE
1 MOL         1 TEMP              0 ****  ****    0 ROOT

@<TRIPOS>MOLECULE
MOL
   10    9    1    0    0
SMALL
bcc


@<TRIPOS>ATOM
   1   C1        0.6360    1.3470    0.4890   c3 1 MOL  0.1274
   2   C2        0.0250   -0.0490    0.2740   c3 1 MOL  0.1274
   3   O1        1.0580   -1.0030    0.0580   oh 1 MOL -0.6040
   4   O2        1.8460    1.2387    1.2296   oh 1 MOL -0.6040
   5   H1        0.8510    1.8123   -0.4753   h1 1 MOL  0.0357
   6   H2       -0.0630    1.9793    1.0400   h1 1 MOL  0.0357
   7   H3       -0.6350   -0.0380   -0.5960   h1 1 MOL  0.0357
   8   H4       -0.5520   -0.3440    1.1540   h1 1 MOL  0.0357
   9   H5        0.5890   -1.8550   -0.0690   ho 1 MOL  0.4050
  10   H6        2.1661    2.1603    1.3207   ho 1 MOL  0.4050
@<TRIPOS>BOND
    1     1     2  1
    2     2     3  1
    3     1     4  1
    4     1     5  1
    5     1     6  1
    6     2     7  1
    7     2     8  1
    8     3     9  1
    9     4    10  1
@<TRIPOS>SUBSTRUCTURE
1 MOL         1 TEMP              0 ****  ****    0 ROOT

@<TRIPOS>MOLECULE
MOL
   10    9    1    0    0
SMALL
bcc


@<TRIPOS>ATOM
   1   C1        0.6360    1.3470    0.4890   c3 1 MOL  0.1274
   2   C2        0.0250   -0.0490    0.2740   c3 1 MOL  0.1274
   3   O1        1.0580   -1.0030    0.0580   oh 1 MOL -0.6040
   4   O2        1.8578    1.2366    1.2096   oh 1 MOL -0.6040
   5   H1        0.8346    1.8195   -0.4754   h1 1 MOL  0.0357
   6   H2       -0.0557    1.9737    1.0553   h1 1 MOL  0.0357
   7   H3       -0.6350   -0.0380   -0.5960   h1 1 MOL  0.0357
   8   H4       -0.5520   -0.3440    1.1540   h1 1 MOL  0.0357
   9   H5        0.5890   -1.8550   -0.0690   ho 1 MOL  0.4050
  10   H6        2.1771    2.1584    1.3020   ho 1 MOL  0.4050
@<TRIPOS>BOND
    1     1     2  1
    2     2     3  1
    3     1     4  1
    4     1     5  1
    5     1     6  1
    6     2     7  1
    7     2     8  1
    8     3     9  1
    9     4    10  1
@<TRIPOS>SUBSTRUCTURE
1 MOL         1 TEMP              0 ****  ****    0 ROOT

@<TRIPOS>MOLECULE
MOL
   10    9    1    0    0
SMALL
bcc


@<TRIPOS>ATOM
   1   C1        0.6360    1.3470    0.4890   c3 1 MOL  0.1274
   2   C2        0.0250   -0.0490    0.2740   c3 1 MOL  0.1274
   3   O1        1.0580   -1.0030    0.0580   oh 1 MOL -0.6040
   4   O2        1.8694    1.2346    1.1894   oh 1 MOL -0.6040
   5   H1        0.8182    1.8266   -0.4751   h1 1 MOL  0.0357
   6   H2       -0.0482    1.9680    1.0706   h1 1 MOL  0.0357
   7   H3       -0.6350   -0.0380   -0.5960   h1 1 MOL  0.0357
   8   H4       -0.5520   -0.3440    1.1540   h1 1 MOL  0.0357
   9   H5        0.5890   -1.8550   -0.0690   ho 1 MOL  0.4050
  10   H6        2.1879    2.1566    1.2831   ho 1 MOL  0.4050
@<TRIPOS>BOND
    1     1     2  1
    2     2     3  1
    3     1     4  1
    4     1     5  1
    5     1     6  1
    6     2     7  1
    7     2     8  1
    8     3     9  1
    9     4    10  1
@<TRIPOS>SUBSTRUCTURE
1 MOL         1 TEMP              0 ****  ****    0 ROOT

@<TRIPOS>MOLECULE
MOL
   10    9    1    0    0
SMALL
bcc


@<TRIPOS>ATOM
   1   C1        0.6360    1.3470    0.4890   c3 1 MOL  0.1274
   2   C2        0.0250   -0.0490    0.2740   c3 1 MOL  0.1274
   3   O1        1.0580   -1.0030    0.0580   oh 1 MOL -0.6040
   4   O2        1.8806    1.2329    1.1690   oh 1 MOL -0.6040
   5   H1        0.8017    1.8337   -0.4745   h1 1 MOL  0.0357
   6   H2       -0.0404    1.9623    1.0856   h1 1 MOL  0.0357
   7   H3       -0.6350   -0.0380   -0.5960   h1 1 MOL  0.0357
   8   H4       -0.5520   -0.3440    1.1540   h1 1 MOL  0.0357
   9   H5        0.5890   -1.8550   -0.0690   ho 1 MOL  0.4050
  10   H6        2.1983    2.1550    1.2641   ho 1 MOL  0.4050
@<TRIPOS>BOND
    1     1     2  1
    2     2     3  1
    3     1     4  1
    4     1     5  1
    5     1     6  1
    6     2     7  1
    7     2     8  1
    8     3     9  1
    9     4    10  1
@<TRIPOS>SUBSTRUCTURE
1 MOL         1 TEMP              0 ****  ****    0 ROOT

@<TRIPOS>MOLECULE
MOL
   10    9    1    0    0
SMALL
bcc


@<TRIPOS>ATOM
   1   C1        0.6360    1.3470    0.4890   c3 1 MOL  0.1274
   2   C2        0.0250   -0.0490    0.2740   c3 1 MOL  0.1274
   3   O1        1.0580   -1.0030    0.0580   oh 1 MOL -0.6040
   4   O2        1.8914    1.2313    1.1484   oh 1 MOL -0.6040
   5   H1        0.7853    1.8408   -0.4736   h1 1 MOL  0.0357
   6   H2       -0.0323    1.9565    1.1005   h1 1 MOL  0.0357
   7   H3       -0.6350   -0.0380   -0.5960   h1 1 MOL  0.0357
   8   H4       -0.5520   -0.3440    1.1540   h1 1 MOL  0.0357
   9   H5        0.5890   -1.8550   -0.0690   ho 1 MOL  0.4050
  10   H6        2.2085    2.1535    1.2449   ho 1 MOL  0.4050
@<TRIPOS>BOND
    1     1     2  1
    2     2     3  1
    3     1     4  1
    4     1     5  1
    5     1     6  1
    6     2     7  1
    7     2     8  1
    8     3     9  1
    9     4    10  1
@<TRIPOS>SUBSTRUCTURE
1 MOL         1 TEMP              0 ****  ****    0 ROOT

@<TRIPOS>MOLECULE
MOL
   10    9    1    0    0
SMALL
bcc


@<TRIPOS>ATOM
   1   C1        0.6360    1.3470    0.4890   c3 1 MOL  0.1274
   2   C2        0.0250   -0.0490    0.2740   c3 1 MOL  0.1274
   3   O1        1.0580   -1.0030    0.0580   oh 1 MOL -0.6040
   4   O2        1.9020    1.2298    1.1276   oh 1 MOL -0.6040
   5   H1        0.7688    1.8478   -0.4724   h1 1 MOL  0.0357
   6   H2       -0.0240    1.9506    1.1152   h1 1 MOL  0.0357
   7   H3       -0.6350   -0.0380   -0.5960   h1 1 MOL  0.0357
   8   H4       -0.5520   -0.3440    1.1540   h1 1 MOL  0.0357
   9   H5        0.5890   -1.8550   -0.0690   ho 1 MOL  0.4050
  10   H6        2.2183    2.1521    1.2255   ho 1 MOL  0.4050
@<TRIPOS>BOND
    1     1     2  1
    2     2     3  1
    3     1     4  1
    4     1     5  1
    5     1     6  1
    6     2     7  1
    7     2     8  1
    8     3     9  1
    9     4    10  1
@<TRIPOS>SUBSTRUCTURE
1 MOL         1 TEMP              0 ****  ****    0 ROOT

@<TRIPOS>MOLECULE
MOL
   10    9    1    0    0
SMALL
bcc


@<TRIPOS>ATOM
   1   C1        0.6360    1.3470    0.4890   c3 1 MOL  0.1274
   2   C2        0.0250   -0.0490    0.2740   c3 1 MOL  0.1274
   3   O1        1.0580   -1.0030    0.0580   oh 1 MOL -0.6040
   4   O2        1.9122    1.2286    1.1067   oh 1 MOL -0.6040
   5   H1        0.7524    1.8547   -0.4708   h1 1 MOL  0.0357
   6   H2       -0.0154    1.9446    1.1298   h1 1 MOL  0.0357
   7   H3       -0.6350   -0.0380   -0.5960   h1 1 MOL  0.0357
   8   H4       -0.5520   -0.3440    1.1540   h1 1 MOL  0.0357
   9   H5        0.5890   -1.8550   -0.0690   ho 1 MOL  0.4050
  10   H6        2.2279    2.1510    1.2059   ho 1 MOL  0.4050
@<TRIPOS>BOND
    1     1     2  1
    2     2     3  1
    3     1     4  1
    4     1     5  1
    5     1     6  1
    6     2     7  1
    7     2     8  1
    8     3     9  1
    9     4    10  1
@<TRIPOS>SUBSTRUCTURE
1 MOL         1 TEMP              0 ****  ****    0 ROOT

@<TRIPOS>MOLECULE
MOL
   10    9    1    0    0
SMALL
bcc


@<TRIPOS>ATOM
   1   C1        0.6360    1.3470    0.4890   c3 1 MOL  0.1274
   2   C2        0.0250   -0.0490    0.2740   c3 1 MOL  0.1274
   3   O1        1.0580   -1.0030    0.0580   oh 1 MOL -0.6040
   4   O2        1.9221    1.2275    1.0856   oh 1 MOL -0.6040
   5   H1        0.7360    1.8617   -0.4690   h1 1 MOL  0.0357
   6   H2       -0.0066    1.9385    1.1441   h1 1 MOL  0.0357
   7   H3       -0.6350   -0.0380   -0.5960   h1 1 MOL  0.0357
   8   H4       -0.5520   -0.3440    1.1540   h1 1 MOL  0.0357
   9   H5        0.5890   -1.8550   -0.0690   ho 1 MOL  0.4050
  10   H6        2.2371    2.1500    1.1862   ho 1 MOL  0.4050
@<TRIPOS>BOND
    1     1     2  1
    2     2     3  1
    3     1     4  1
    4     1     5  1
    5     1     6  1
    6     2     7  1
    7     2     8  1
    8     3     9  1
    9     4    10  1
@<TRIPOS>SUBSTRUCTURE
1 MOL         1 TEMP              0 ****  ****    0 ROOT

@<TRIPOS>MOLECULE
MOL
   10    9    1    0    0
SMALL
bcc


@<TRIPOS>ATOM
   1   C1        0.6360    1.3470    0.4890   c3 1 MOL  0.1274
   2   C2        0.0250   -0.0490    0.2740   c3 1 MOL  0.1274
   3   O1        1.0580   -1.0030    0.0580   oh 1 MOL -0.6040
   4   O2        1.9317    1.2266    1.0643   oh 1 MOL -0.6040
   5   H1        0.7196    1.8685   -0.4669   h1 1 MOL  0.0357
   6   H2        0.0025    1.9324    1.1583   h1 1 MOL  0.0357
   7   H3       -0.6350   -0.0380   -0.5960   h1 1 MOL  0.0357
   8   H4       -0.5520   -0.3440    1.1540   h1 1 MOL  0.0357
   9   H5        0.5890   -1.8550   -0.0690   ho 1 MOL  0.4050
  10   H6        2.2460    2.1491    1.1663   ho 1 MOL  0.4050
@<TRIPOS>BOND
    1     1     2  1
    2     2     3  1
    3     1     4  1
    4     1     5  1
    5     1     6  1
    6     2     7  1
    7     2     8  1
    8     3     9  1
    9     4    10  1
@<TRIPOS>SUBSTRUCTURE
1 MOL         1 TEMP              0 ****  ****    0 ROOT

@<TRIPOS>MOLECULE
MOL
   10    9    1    0    0
SMALL
bcc


@<TRIPOS>ATOM
   1   C1        0.6360    1.3470    0.4890   c3 1 MOL  0.1274
   2   C2        0.0250   -0.0490    0.2740   c3 1 MOL  0.1274
   3   O1        1.0580   -1.0030    0.0580   oh 1 MOL -0.6040
   4   O2        1.9409    1.2259    1.0429   oh 1 MOL -0.6040
   5   H1        0.7032    1.8753   -0.4644   h1 1 MOL  0.0357
   6   H2        0.0117    1.9262    1.1723   h1 1 MOL  0.0357
   7   H3       -0.6350   -0.0380   -0.5960   h1 1 MOL  0.0357
   8   H4       -0.5520   -0.3440    1.1540   h1 1 MOL  0.0357
   9   H5        0.5890   -1.8550   -0.0690   ho 1 MOL  0.4050
  10   H6        2.2547    2.1484    1.1463   ho 1 MOL  0.4050
@<TRIPOS>BOND
    1     1     2  1
    2     2     3  1
    3     1     4  1
    4     1     5  1
    5     1     6  1
    6     2     7  1
    7     2     8  1
    8     3     9  1
    9     4    10  1
@<TRIPOS>SUBSTRUCTURE
1 MOL         1 TEMP              0 ****  ****    0 ROOT

@<TRIPOS>MOLECULE
MOL
   10    9    1    0    0
SMALL
bcc


@<TRIPOS>ATOM
   1   C1        0.6360    1.3470    0.4890   c3 1 MOL  0.1274
   2   C2        0.0250   -0.0490    0.2740   c3 1 MOL  0.1274
   3   O1        1.0580   -1.0030    0.0580   oh 1 MOL -0.6040
   4   O2        1.9498    1.2253    1.0213   oh 1 MOL -0.6040
   5   H1        0.6868    1.8820   -0.4617   h1 1 MOL  0.0357
   6   H2        0.0213    1.9199    1.1861   h1 1 MOL  0.0357
   7   H3       -0.6350   -0.0380   -0.5960   h1 1 MOL  0.0357
   8   H4       -0.5520   -0.3440    1.1540   h1 1 MOL  0.0357
   9   H5        0.5890   -1.8550   -0.0690   ho 1 MOL  0.4050
  10   H6        2.2630    2.1479    1.1262   ho 1 MOL  0.4050
@<TRIPOS>BOND
    1     1     2  1
    2     2     3  1
    3     1     4  1
    4     1     5  1
    5     1     6  1
    6     2     7  1
    7     2     8  1
    8     3     9  1
    9     4    10  1
@<TRIPOS>SUBSTRUCTURE
1 MOL         1 TEMP              0 ****  ****    0 ROOT

@<TRIPOS>MOLECULE
MOL
   10    9    1    0    0
SMALL
bcc


@<TRIPOS>ATOM
   1   C1        0.6360    1.3470    0.4890   c3 1 MOL  0.1274
   2   C2        0.0250   -0.0490    0.2740   c3 1 MOL  0.1274
   3   O1        1.0580   -1.0030    0.0580   oh 1 MOL -0.6040
   4   O2        1.9584    1.2249    0.9996   oh 1 MOL -0.6040
   5   H1        0.6705    1.8887   -0.4586   h1 1 MOL  0.0357
   6   H2        0.0310    1.9135    1.1997   h1 1 MOL  0.0357
   7   H3       -0.6350   -0.0380   -0.5960   h1 1 MOL  0.0357
   8   H4       -0.5520   -0.3440    1.1540   h1 1 MOL  0.0357
   9   H5        0.5890   -1.8550   -0.0690   ho 1 MOL  0.4050
  10   H6        2.2709    2.1475    1.1059   ho 1 MOL  0.4050
@<TRIPOS>BOND
    1     1     2  1
    2     2     3  1
    3     1     4  1
    4     1     5  1
    5     1     6  1
    6     2     7  1
    7     2     8  1
    8     3     9  1
    9     4    10  1
@<TRIPOS>SUBSTRUCTURE
1 MOL         1 TEMP              0 ****  ****    0 ROOT

@<TRIPOS>MOLECULE
MOL
   10    9    1    0    0
SMALL
bcc


@<TRIPOS>ATOM
   1   C1        0.6360    1.3470    0.4890   c3 1 MOL  0.1274
   2   C2        0.0250   -0.0490    0.2740   c3 1 MOL  0.1274
   3   O1        1.0580   -1.0030    0.0580   oh 1 MOL -0.6040
   4   O2        1.9666    1.2247    0.9777   oh 1 MOL -0.6040
   5   H1        0.6541    1.8953   -0.4553   h1 1 MOL  0.0357
   6   H2        0.0410    1.9071    1.2131   h1 1 MOL  0.0357
   7   H3       -0.6350   -0.0380   -0.5960   h1 1 MOL  0.0357
   8   H4       -0.5520   -0.3440    1.1540   h1 1 MOL  0.0357
   9   H5        0.5890   -1.8550   -0.0690   ho 1 MOL  0.4050
  10   H6        2.2786    2.1473    1.0855   ho 1 MOL  0.4050
@<TRIPOS>BOND
    1     1     2  1
    2     2     3  1
    3     1     4  1
    4     1     5  1
    5     1     6  1
    6     2     7  1
    7     2     8  1
    8     3     9  1
    9     4    10  1
@<TRIPOS>SUBSTRUCTURE
1 MOL         1 TEMP              0 ****  ****    0 ROOT

@<TRIPOS>MOLECULE
MOL
   10    9    1    0    0
SMALL
bcc


@<TRIPOS>ATOM
   1   C1        0.6360    1.3470    0.4890   c3 1 MOL  0.1274
   2   C2        0.0250   -0.0490    0.2740   c3 1 MOL  0.1274
   3   O1        1.0580   -1.0030    0.0580   oh 1 MOL -0.6040
   4   O2        1.9745    1.2246    0.9558   oh 1 MOL -0.6040
   5   H1        0.6379    1.9019   -0.4516   h1 1 MOL  0.0357
   6   H2        0.0512    1.9006    1.2263   h1 1 MOL  0.0357
   7   H3       -0.6350   -0.0380   -0.5960   h1 1 MOL  0.0357
   8   H4       -0.5520   -0.3440    1.1540   h1 1 MOL  0.0357
   9   H5        0.5890   -1.8550   -0.0690   ho 1 MOL  0.4050
  10   H6        2.2859    2.1473    1.0650   ho 1 MOL  0.4050
@<TRIPOS>BOND
    1     1     2  1
    2     2     3  1
    3     1     4  1
    4     1     5  1
    5     1     6  1
    6     2     7  1
    7     2     8  1
    8     3     9  1
    9     4    10  1
@<TRIPOS>SUBSTRUCTURE
1 MOL         1 TEMP              0 ****  ****    0 ROOT

@<TRIPOS>MOLECULE
MOL
   10    9    1    0    0
SMALL
bcc


@<TRIPOS>ATOM
   1   C1        0.6360    1.3470    0.4890   c3 1 MOL  0.1274
   2   C2        0.0250   -0.0490    0.2740   c3 1 MOL  0.1274
   3   O1        1.0580   -1.0030    0.0580   oh 1 MOL -0.6040
   4   O2        1.9820    1.2247    0.9337   oh 1 MOL -0.6040
   5   H1        0.6217    1.9084   -0.4476   h1 1 MOL  0.0357
   6   H2        0.0617    1.8940    1.2393   h1 1 MOL  0.0357
   7   H3       -0.6350   -0.0380   -0.5960   h1 1 MOL  0.0357
   8   H4       -0.5520   -0.3440    1.1540   h1 1 MOL  0.0357
   9   H5        0.5890   -1.8550   -0.0690   ho 1 MOL  0.4050
  10   H6        2.2929    2.1474    1.0444   ho 1 MOL  0.4050
@<TRIPOS>BOND
    1     1     2  1
    2     2     3  1
    3     1     4  1
    4     1     5  1
    5     1     6  1
    6     2     7  1
    7     2     8  1
    8     3     9  1
    9     4    10  1
@<TRIPOS>SUBSTRUCTURE
1 MOL         1 TEMP              0 ****  ****    0 ROOT

@<TRIPOS>MOLECULE
MOL
   10    9    1    0    0
SMALL
bcc


@<TRIPOS>ATOM
   1   C1        0.6360    1.3470    0.4890   c3 1 MOL  0.1274
   2   C2        0.0250   -0.0490    0.2740   c3 1 MOL  0.1274
   3   O1        1.0580   -1.0030    0.0580   oh 1 MOL -0.6040
   4   O2        1.9891    1.2250    0.9114   oh 1 MOL -0.6040
   5   H1        0.6055    1.9148   -0.4434   h1 1 MOL  0.0357
   6   H2        0.0723    1.8874    1.2521   h1 1 MOL  0.0357
   7   H3       -0.6350   -0.0380   -0.5960   h1 1 MOL  0.0357
   8   H4       -0.5520   -0.3440    1.1540   h1 1 MOL  0.0357
   9   H5        0.5890   -1.8550   -0.0690   ho 1 MOL  0.4050
  10   H6        2.2996    2.1477    1.0236   ho 1 MOL  0.4050
@<TRIPOS>BOND
    1     1     2  1
    2     2     3  1
    3     1     4  1
    4     1     5  1
    5     1     6  1
    6     2     7  1
    7     2     8  1
    8     3     9  1
    9     4    10  1
@<TRIPOS>SUBSTRUCTURE
1 MOL         1 TEMP              0 ****  ****    0 ROOT

@<TRIPOS>MOLECULE
MOL
   10    9    1    0    0
SMALL
bcc


@<TRIPOS>ATOM
   1   C1        0.6360    1.3470    0.4890   c3 1 MOL  0.1274
   2   C2        0.0250   -0.0490    0.2740   c3 1 MOL  0.1274
   3   O1        1.0580   -1.0030    0.0580   oh 1 MOL -0.6040
   4   O2        1.9959    1.2255    0.8891   oh 1 MOL -0.6040
   5   H1        0.5894    1.9212   -0.4388   h1 1 MOL  0.0357
   6   H2        0.0832    1.8807    1.2646   h1 1 MOL  0.0357
   7   H3       -0.6350   -0.0380   -0.5960   h1 1 MOL  0.0357
   8   H4       -0.5520   -0.3440    1.1540   h1 1 MOL  0.0357
   9   H5        0.5890   -1.8550   -0.0690   ho 1 MOL  0.4050
  10   H6        2.3059    2.1481    1.0028   ho 1 MOL  0.4050
@<TRIPOS>BOND
    1     1     2  1
    2     2     3  1
    3     1     4  1
    4     1     5  1
    5     1     6  1
    6     2     7  1
    7     2     8  1
    8     3     9  1
    9     4    10  1
@<TRIPOS>SUBSTRUCTURE
1 MOL         1 TEMP              0 ****  ****    0 ROOT

@<TRIPOS>MOLECULE
MOL
   10    9    1    0    0
SMALL
bcc


@<TRIPOS>ATOM
   1   C1        0.6360    1.3470    0.4890   c3 1 MOL  0.1274
   2   C2        0.0250   -0.0490    0.2740   c3 1 MOL  0.1274
   3   O1        1.0580   -1.0030    0.0580   oh 1 MOL -0.6040
   4   O2        2.0024    1.2261    0.8667   oh 1 MOL -0.6040
   5   H1        0.5733    1.9274   -0.4339   h1 1 MOL  0.0357
   6   H2        0.0943    1.8739    1.2770   h1 1 MOL  0.0357
   7   H3       -0.6350   -0.0380   -0.5960   h1 1 MOL  0.0357
   8   H4       -0.5520   -0.3440    1.1540   h1 1 MOL  0.0357
   9   H5        0.5890   -1.8550   -0.0690   ho 1 MOL  0.4050
  10   H6        2.3120    2.1487    0.9819   ho 1 MOL  0.4050
@<TRIPOS>BOND
    1     1     2  1
    2     2     3  1
    3     1     4  1
    4     1     5  1
    5     1     6  1
    6     2     7  1
    7     2     8  1
    8     3     9  1
    9     4    10  1
@<TRIPOS>SUBSTRUCTURE
1 MOL         1 TEMP              0 ****  ****    0 ROOT

@<TRIPOS>MOLECULE
MOL
   10    9    1    0    0
SMALL
bcc


@<TRIPOS>ATOM
   1   C1        0.6360    1.3470    0.4890   c3 1 MOL  0.1274
   2   C2        0.0250   -0.0490    0.2740   c3 1 MOL  0.1274
   3   O1        1.0580   -1.0030    0.0580   oh 1 MOL -0.6040
   4   O2        2.0085    1.2269    0.8442   oh 1 MOL -0.6040
   5   H1        0.5573    1.9336   -0.4288   h1 1 MOL  0.0357
   6   H2        0.1056    1.8671    1.2891   h1 1 MOL  0.0357
   7   H3       -0.6350   -0.0380   -0.5960   h1 1 MOL  0.0357
   8   H4       -0.5520   -0.3440    1.1540   h1 1 MOL  0.0357
   9   H5        0.5890   -1.8550   -0.0690   ho 1 MOL  0.4050
  10   H6        2.3176    2.1494    0.9608   ho 1 MOL  0.4050
@<TRIPOS>BOND
    1     1     2  1
    2     2     3  1
    3     1     4  1
    4     1     5  1
    5     1     6  1
    6     2     7  1
    7     2     8  1
    8     3     9  1
    9     4    10  1
@<TRIPOS>SUBSTRUCTURE
1 MOL         1 TEMP              0 ****  ****    0 ROOT

@<TRIPOS>MOLECULE
MOL
   10    9    1    0    0
SMALL
bcc


@<TRIPOS>ATOM
   1   C1        0.6360    1.3470    0.4890   c3 1 MOL  0.1274
   2   C2        0.0250   -0.0490    0.2740   c3 1 MOL  0.1274
   3   O1        1.0580   -1.0030    0.0580   oh 1 MOL -0.6040
   4   O2        2.0142    1.2279    0.8216   oh 1 MOL -0.6040
   5   H1        0.5414    1.9398   -0.4233   h1 1 MOL  0.0357
   6   H2        0.1171    1.8602    1.3010   h1 1 MOL  0.0357
   7   H3       -0.6350   -0.0380   -0.5960   h1 1 MOL  0.0357
   8   H4       -0.5520   -0.3440    1.1540   h1 1 MOL  0.0357
   9   H5        0.5890   -1.8550   -0.0690   ho 1 MOL  0.4050
  10   H6        2.3230    2.1504    0.9397   ho 1 MOL  0.4050
@<TRIPOS>BOND
    1     1     2  1
    2     2     3  1
    3     1     4  1
    4     1     5  1
    5     1     6  1
    6     2     7  1
    7     2     8  1
    8     3     9  1
    9     4    10  1
@<TRIPOS>SUBSTRUCTURE
1 MOL         1 TEMP              0 ****  ****    0 ROOT

@<TRIPOS>MOLECULE
MOL
   10    9    1    0    0
SMALL
bcc


@<TRIPOS>ATOM
   1   C1        0.6360    1.3470    0.4890   c3 1 MOL  0.1274
   2   C2        0.0250   -0.0490    0.2740   c3 1 MOL  0.1274
   3   O1        1.0580   -1.0030    0.0580   oh 1 MOL -0.6040
   4   O2        2.0196    1.2290    0.7989   oh 1 MOL -0.6040
   5   H1        0.5255    1.9458   -0.4176   h1 1 MOL  0.0357
   6   H2        0.1288    1.8533    1.3126   h1 1 MOL  0.0357
   7   H3       -0.6350   -0.0380   -0.5960   h1 1 MOL  0.0357
   8   H4       -0.5520   -0.3440    1.1540   h1 1 MOL  0.0357
   9   H5        0.5890   -1.8550   -0.0690   ho 1 MOL  0.4050
  10   H6        2.3280    2.1514    0.9186   ho 1 MOL  0.4050
@<TRIPOS>BOND
    1     1     2  1
    2     2     3  1
    3     1     4  1
    4     1     5  1
    5     1     6  1
    6     2     7  1
    7     2     8  1
    8     3     9  1
    9     4    10  1
@<TRIPOS>SUBSTRUCTURE
1 MOL         1 TEMP              0 ****  ****    0 ROOT

@<TRIPOS>MOLECULE
MOL
   10    9    1    0    0
SMALL
bcc


@<TRIPOS>ATOM
   1   C1        0.6360    1.3470    0.4890   c3 1 MOL  0.1274
   2   C2        0.0250   -0.0490    0.2740   c3 1 MOL  0.1274
   3   O1        1.0580   -1.0030    0.0580   oh 1 MOL -0.6040
   4   O2        2.0246    1.2303    0.7761   oh 1 MOL -0.6040
   5   H1        0.5098    1.9518   -0.4115   h1 1 MOL  0.0357
   6   H2        0.1407    1.8464    1.3240   h1 1 MOL  0.0357
   7   H3       -0.6350   -0.0380   -0.5960   h1 1 MOL  0.0357
   8   H4       -0.5520   -0.3440    1.1540   h1 1 MOL  0.0357
   9   H5        0.5890   -1.8550   -0.0690   ho 1 MOL  0.4050
  10   H6        2.3327    2.1527    0.8973   ho 1 MOL  0.4050
@<TRIPOS>BOND
    1     1     2  1
    2     2     3  1
    3     1     4  1
    4     1     5  1
    5     1     6  1
    6     2     7  1
    7     2     8  1
    8     3     9  1
    9     4    10  1
@<TRIPOS>SUBSTRUCTURE
1 MOL         1 TEMP              0 ****  ****    0 ROOT

@<TRIPOS>MOLECULE
MOL
   10    9    1    0    0
SMALL
bcc


@<TRIPOS>ATOM
   1   C1        0.6360    1.3470    0.4890   c3 1 MOL  0.1274
   2   C2        0.0250   -0.0490    0.2740   c3 1 MOL  0.1274
   3   O1        1.0580   -1.0030    0.0580   oh 1 MOL -0.6040
   4   O2        2.0293    1.2318    0.7533   oh 1 MOL -0.6040
   5   H1        0.4941    1.9577   -0.4052   h1 1 MOL  0.0357
   6   H2        0.1528    1.8393    1.3352   h1 1 MOL  0.0357
   7   H3       -0.6350   -0.0380   -0.5960   h1 1 MOL  0.0357
   8   H4       -0.5520   -0.3440    1.1540   h1 1 MOL  0.0357
   9   H5        0.5890   -1.8550   -0.0690   ho 1 MOL  0.4050
  10   H6        2.3370    2.1540    0.8760   ho 1 MOL  0.4050
@<TRIPOS>BOND
    1     1     2  1
    2     2     3  1
    3     1     4  1
    4     1     5  1
    5     1     6  1
    6     2     7  1
    7     2     8  1
    8     3     9  1
    9     4    10  1
@<TRIPOS>SUBSTRUCTURE
1 MOL         1 TEMP              0 ****  ****    0 ROOT

@<TRIPOS>MOLECULE
MOL
   10    9    1    0    0
SMALL
bcc


@<TRIPOS>ATOM
   1   C1        0.6360    1.3470    0.4890   c3 1 MOL  0.1274
   2   C2        0.0250   -0.0490    0.2740   c3 1 MOL  0.1274
   3   O1        1.0580   -1.0030    0.0580   oh 1 MOL -0.6040
   4   O2        2.0335    1.2334    0.7304   oh 1 MOL -0.6040
   5   H1        0.4785    1.9635   -0.3986   h1 1 MOL  0.0357
   6   H2        0.1651    1.8323    1.3462   h1 1 MOL  0.0357
   7   H3       -0.6350   -0.0380   -0.5960   h1 1 MOL  0.0357
   8   H4       -0.5520   -0.3440    1.1540   h1 1 MOL  0.0357
   9   H5        0.5890   -1.8550   -0.0690   ho 1 MOL  0.4050
  10   H6        2.3410    2.1556    0.8546   ho 1 MOL  0.4050
@<TRIPOS>BOND
    1     1     2  1
    2     2     3  1
    3     1     4  1
    4     1     5  1
    5     1     6  1
    6     2     7  1
    7     2     8  1
    8     3     9  1
    9     4    10  1
@<TRIPOS>SUBSTRUCTURE
1 MOL         1 TEMP              0 ****  ****    0 ROOT

@<TRIPOS>MOLECULE
MOL
   10    9    1    0    0
SMALL
bcc


@<TRIPOS>ATOM
   1   C1        0.6360    1.3470    0.4890   c3 1 MOL  0.1274
   2   C2        0.0250   -0.0490    0.2740   c3 1 MOL  0.1274
   3   O1        1.0580   -1.0030    0.0580   oh 1 MOL -0.6040
   4   O2        2.0375    1.2353    0.7075   oh 1 MOL -0.6040
   5   H1        0.4630    1.9692   -0.3917   h1 1 MOL  0.0357
   6   H2        0.1775    1.8252    1.3569   h1 1 MOL  0.0357
   7   H3       -0.6350   -0.0380   -0.5960   h1 1 MOL  0.0357
   8   H4       -0.5520   -0.3440    1.1540   h1 1 MOL  0.0357
   9   H5        0.5890   -1.8550   -0.0690   ho 1 MOL  0.4050
  10   H6        2.3446    2.1573    0.8332   ho 1 MOL  0.4050
@<TRIPOS>BOND
    1     1     2  1
    2     2     3  1
    3     1     4  1
    4     1     5  1
    5     1     6  1
    6     2     7  1
    7     2     8  1
    8     3     9  1
    9     4    10  1
@<TRIPOS>SUBSTRUCTURE
1 MOL         1 TEMP              0 ****  ****    0 ROOT

@<TRIPOS>MOLECULE
MOL
   10    9    1    0    0
SMALL
bcc


@<TRIPOS>ATOM
   1   C1        0.6360    1.3470    0.4890   c3 1 MOL  0.1274
   2   C2        0.0250   -0.0490    0.2740   c3 1 MOL  0.1274
   3   O1        1.0580   -1.0030    0.0580   oh 1 MOL -0.6040
   4   O2        2.0410    1.2373    0.6845   oh 1 MOL -0.6040
   5   H1        0.4476    1.9749   -0.3845   h1 1 MOL  0.0357
   6   H2        0.1902    1.8180    1.3673   h1 1 MOL  0.0357
   7   H3       -0.6350   -0.0380   -0.5960   h1 1 MOL  0.0357
   8   H4       -0.5520   -0.3440    1.1540   h1 1 MOL  0.0357
   9   H5        0.5890   -1.8550   -0.0690   ho 1 MOL  0.4050
  10   H6        2.3479    2.1591    0.8118   ho 1 MOL  0.4050
@<TRIPOS>BOND
    1     1     2  1
    2     2     3  1
    3     1     4  1
    4     1     5  1
    5     1     6  1
    6     2     7  1
    7     2     8  1
    8     3     9  1
    9     4    10  1
@<TRIPOS>SUBSTRUCTURE
1 MOL         1 TEMP              0 ****  ****    0 ROOT

@<TRIPOS>MOLECULE
MOL
   10    9    1    0    0
SMALL
bcc


@<TRIPOS>ATOM
   1   C1        0.6360    1.3470    0.4890   c3 1 MOL  0.1274
   2   C2        0.0250   -0.0490    0.2740   c3 1 MOL  0.1274
   3   O1        1.0580   -1.0030    0.0580   oh 1 MOL -0.6040
   4   O2        2.0442    1.2394    0.6615   oh 1 MOL -0.6040
   5   H1        0.4323    1.9804   -0.3770   h1 1 MOL  0.0357
   6   H2        0.2031    1.8108    1.3775   h1 1 MOL  0.0357
   7   H3       -0.6350   -0.0380   -0.5960   h1 1 MOL  0.0357
   8   H4       -0.5520   -0.3440    1.1540   h1 1 MOL  0.0357
   9   H5        0.5890   -1.8550   -0.0690   ho 1 MOL  0.4050
  10   H6        2.3509    2.1612    0.7903   ho 1 MOL  0.4050
@<TRIPOS>BOND
    1     1     2  1
    2     2     3  1
    3     1     4  1
    4     1     5  1
    5     1     6  1
    6     2     7  1
    7     2     8  1
    8     3     9  1
    9     4    10  1
@<TRIPOS>SUBSTRUCTURE
1 MOL         1 TEMP              0 ****  ****    0 ROOT

@<TRIPOS>MOLECULE
MOL
   10    9    1    0    0
SMALL
bcc


@<TRIPOS>ATOM
   1   C1        0.6360    1.3470    0.4890   c3 1 MOL  0.1274
   2   C2        0.0250   -0.0490    0.2740   c3 1 MOL  0.1274
   3   O1        1.0580   -1.0030    0.0580   oh 1 MOL -0.6040
   4   O2        2.0470    1.2417    0.6384   oh 1 MOL -0.6040
   5   H1        0.4171    1.9859   -0.3692   h1 1 MOL  0.0357
   6   H2        0.2161    1.8036    1.3874   h1 1 MOL  0.0357
   7   H3       -0.6350   -0.0380   -0.5960   h1 1 MOL  0.0357
   8   H4       -0.5520   -0.3440    1.1540   h1 1 MOL  0.0357
   9   H5        0.5890   -1.8550   -0.0690   ho 1 MOL  0.4050
  10   H6        2.3535    2.1633    0.7688   ho 1 MOL  0.4050
@<TRIPOS>BOND
    1     1     2  1
    2     2     3  1
    3     1     4  1
    4     1     5  1
    5     1     6  1
    6     2     7  1
    7     2     8  1
    8     3     9  1
    9     4    10  1
@<TRIPOS>SUBSTRUCTURE
1 MOL         1 TEMP              0 ****  ****    0 ROOT

@<TRIPOS>MOLECULE
MOL
   10    9    1    0    0
SMALL
bcc


@<TRIPOS>ATOM
   1   C1        0.6360    1.3470    0.4890   c3 1 MOL  0.1274
   2   C2        0.0250   -0.0490    0.2740   c3 1 MOL  0.1274
   3   O1        1.0580   -1.0030    0.0580   oh 1 MOL -0.6040
   4   O2        2.0494    1.2442    0.6154   oh 1 MOL -0.6040
   5   H1        0.4020    1.9912   -0.3612   h1 1 MOL  0.0357
   6   H2        0.2293    1.7963    1.3971   h1 1 MOL  0.0357
   7   H3       -0.6350   -0.0380   -0.5960   h1 1 MOL  0.0357
   8   H4       -0.5520   -0.3440    1.1540   h1 1 MOL  0.0357
   9   H5        0.5890   -1.8550   -0.0690   ho 1 MOL  0.4050
  10   H6        2.3558    2.1657    0.7472   ho 1 MOL  0.4050
@<TRIPOS>BOND
    1     1     2  1
    2     2     3  1
    3     1     4  1
    4     1     5  1
    5     1     6  1
    6     2     7  1
    7     2     8  1
    8     3     9  1
    9     4    10  1
@<TRIPOS>SUBSTRUCTURE
1 MOL         1 TEMP              0 ****  ****    0 ROOT

@<TRIPOS>MOLECULE
MOL
   10    9    1    0    0
SMALL
bcc


@<TRIPOS>ATOM
   1   C1        0.6360    1.3470    0.4890   c3 1 MOL  0.1274
   2   C2        0.0250   -0.0490    0.2740   c3 1 MOL  0.1274
   3   O1        1.0580   -1.0030    0.0580   oh 1 MOL -0.6040
   4   O2        2.0515    1.2469    0.5923   oh 1 MOL -0.6040
   5   H1        0.3870    1.9965   -0.3529   h1 1 MOL  0.0357
   6   H2        0.2426    1.7890    1.4066   h1 1 MOL  0.0357
   7   H3       -0.6350   -0.0380   -0.5960   h1 1 MOL  0.0357
   8   H4       -0.5520   -0.3440    1.1540   h1 1 MOL  0.0357
   9   H5        0.5890   -1.8550   -0.0690   ho 1 MOL  0.4050
  10   H6        2.3577    2.1681    0.7257   ho 1 MOL  0.4050
@<TRIPOS>BOND
    1     1     2  1
    2     2     3  1
    3     1     4  1
    4     1     5  1
    5     1     6  1
    6     2     7  1
    7     2     8  1
    8     3     9  1
    9     4    10  1
@<TRIPOS>SUBSTRUCTURE
1 MOL         1 TEMP              0 ****  ****    0 ROOT

@<TRIPOS>MOLECULE
MOL
   10    9    1    0    0
SMALL
bcc


@<TRIPOS>ATOM
   1   C1        0.6360    1.3470    0.4890   c3 1 MOL  0.1274
   2   C2        0.0250   -0.0490    0.2740   c3 1 MOL  0.1274
   3   O1        1.0580   -1.0030    0.0580   oh 1 MOL -0.6040
   4   O2        2.0532    1.2497    0.5691   oh 1 MOL -0.6040
   5   H1        0.3721    2.0017   -0.3443   h1 1 MOL  0.0357
   6   H2        0.2562    1.7817    1.4157   h1 1 MOL  0.0357
   7   H3       -0.6350   -0.0380   -0.5960   h1 1 MOL  0.0357
   8   H4       -0.5520   -0.3440    1.1540   h1 1 MOL  0.0357
   9   H5        0.5890   -1.8550   -0.0690   ho 1 MOL  0.4050
  10   H6        2.3592    2.1708    0.7041   ho 1 MOL  0.4050
@<TRIPOS>BOND
    1     1     2  1
    2     2     3  1
    3     1     4  1
    4     1     5  1
    5     1     6  1
    6     2     7  1
    7     2     8  1
    8     3     9  1
    9     4    10  1
@<TRIPOS>SUBSTRUCTURE
1 MOL         1 TEMP              0 ****  ****    0 ROOT

@<TRIPOS>MOLECULE
MOL
   10    9    1    0    0
SMALL
bcc


@<TRIPOS>ATOM
   1   C1        0.6360    1.3470    0.4890   c3 1 MOL  0.1274
   2   C2        0.0250   -0.0490    0.2740   c3 1 MOL  0.1274
   3   O1        1.0580   -1.0030    0.0580   oh 1 MOL -0.6040
   4   O2        2.0545    1.2527    0.5460   oh 1 MOL -0.6040
   5   H1        0.3574    2.0068   -0.3355   h1 1 MOL  0.0357
   6   H2        0.2699    1.7743    1.4246   h1 1 MOL  0.0357
   7   H3       -0.6350   -0.0380   -0.5960   h1 1 MOL  0.0357
   8   H4       -0.5520   -0.3440    1.1540   h1 1 MOL  0.0357
   9   H5        0.5890   -1.8550   -0.0690   ho 1 MOL  0.4050
  10   H6        2.3605    2.1736    0.6825   ho 1 MOL  0.4050
@<TRIPOS>BOND
    1     1     2  1
    2     2     3  1
    3     1     4  1
    4     1     5  1
    5     1     6  1
    6     2     7  1
    7     2     8  1
    8     3     9  1
    9     4    10  1
@<TRIPOS>SUBSTRUCTURE
1 MOL         1 TEMP              0 ****  ****    0 ROOT

@<TRIPOS>MOLECULE
MOL
   10    9    1    0    0
SMALL
bcc


@<TRIPOS>ATOM
   1   C1        0.6360    1.3470    0.4890   c3 1 MOL  0.1274
   2   C2        0.0250   -0.0490    0.2740   c3 1 MOL  0.1274
   3   O1        1.0580   -1.0030    0.0580   oh 1 MOL -0.6040
   4   O2        2.0554    1.2558    0.5229   oh 1 MOL -0.6040
   5   H1        0.3428    2.0118   -0.3263   h1 1 MOL  0.0357
   6   H2        0.2837    1.7669    1.4332   h1 1 MOL  0.0357
   7   H3       -0.6350   -0.0380   -0.5960   h1 1 MOL  0.0357
   8   H4       -0.5520   -0.3440    1.1540   h1 1 MOL  0.0357
   9   H5        0.5890   -1.8550   -0.0690   ho 1 MOL  0.4050
  10   H6        2.3613    2.1765    0.6609   ho 1 MOL  0.4050
@<TRIPOS>BOND
    1     1     2  1
    2     2     3  1
    3     1     4  1
    4     1     5  1
    5     1     6  1
    6     2     7  1
    7     2     8  1
    8     3     9  1
    9     4    10  1
@<TRIPOS>SUBSTRUCTURE
1 MOL         1 TEMP              0 ****  ****    0 ROOT

@<TRIPOS>MOLECULE
MOL
   10    9    1    0    0
SMALL
bcc


@<TRIPOS>ATOM
   1   C1        0.6360    1.3470    0.4890   c3 1 MOL  0.1274
   2   C2        0.0250   -0.0490    0.2740   c3 1 MOL  0.1274
   3   O1        1.0580   -1.0030    0.0580   oh 1 MOL -0.6040
   4   O2        2.0560    1.2591    0.4998   oh 1 MOL -0.6040
   5   H1        0.3284    2.0166   -0.3170   h1 1 MOL  0.0357
   6   H2        0.2977    1.7595    1.4416   h1 1 MOL  0.0357
   7   H3       -0.6350   -0.0380   -0.5960   h1 1 MOL  0.0357
   8   H4       -0.5520   -0.3440    1.1540   h1 1 MOL  0.0357
   9   H5        0.5890   -1.8550   -0.0690   ho 1 MOL  0.4050
  10   H6        2.3619    2.1796    0.6394   ho 1 MOL  0.4050
@<TRIPOS>BOND
    1     1     2  1
    2     2     3  1
    3     1     4  1
    4     1     5  1
    5     1     6  1
    6     2     7  1
    7     2     8  1
    8     3     9  1
    9     4    10  1
@<TRIPOS>SUBSTRUCTURE
1 MOL         1 TEMP              0 ****  ****    0 ROOT

@<TRIPOS>MOLECULE
MOL
   10    9    1    0    0
SMALL
bcc


@<TRIPOS>ATOM
   1   C1        0.6360    1.3470    0.4890   c3 1 MOL  0.1274
   2   C2        0.0250   -0.0490    0.2740   c3 1 MOL  0.1274
   3   O1        1.0580   -1.0030    0.0580   oh 1 MOL -0.6040
   4   O2        2.0562    1.2626    0.4767   oh 1 MOL -0.6040
   5   H1        0.3140    2.0214   -0.3073   h1 1 MOL  0.0357
   6   H2        0.3119    1.7521    1.4497   h1 1 MOL  0.0357
   7   H3       -0.6350   -0.0380   -0.5960   h1 1 MOL  0.0357
   8   H4       -0.5520   -0.3440    1.1540   h1 1 MOL  0.0357
   9   H5        0.5890   -1.8550   -0.0690   ho 1 MOL  0.4050
  10   H6        2.3620    2.1828    0.6178   ho 1 MOL  0.4050
@<TRIPOS>BOND
    1     1     2  1
    2     2     3  1
    3     1     4  1
    4     1     5  1
    5     1     6  1
    6     2     7  1
    7     2     8  1
    8     3     9  1
    9     4    10  1
@<TRIPOS>SUBSTRUCTURE
1 MOL         1 TEMP              0 ****  ****    0 ROOT

@<TRIPOS>MOLECULE
MOL
   10    9    1    0    0
SMALL
bcc


@<TRIPOS>ATOM
   1   C1        0.6360    1.3470    0.4890   c3 1 MOL  0.1274
   2   C2        0.0250   -0.0490    0.2740   c3 1 MOL  0.1274
   3   O1        1.0580   -1.0030    0.0580   oh 1 MOL -0.6040
   4   O2        2.0560    1.2662    0.4537   oh 1 MOL -0.6040
   5   H1        0.2999    2.0261   -0.2974   h1 1 MOL  0.0357
   6   H2        0.3262    1.7446    1.4575   h1 1 MOL  0.0357
   7   H3       -0.6350   -0.0380   -0.5960   h1 1 MOL  0.0357
   8   H4       -0.5520   -0.3440    1.1540   h1 1 MOL  0.0357
   9   H5        0.5890   -1.8550   -0.0690   ho 1 MOL  0.4050
  10   H6        2.3619    2.1862    0.5963   ho 1 MOL  0.4050
@<TRIPOS>BOND
    1     1     2  1
    2     2     3  1
    3     1     4  1
    4     1     5  1
    5     1     6  1
    6     2     7  1
    7     2     8  1
    8     3     9  1
    9     4    10  1
@<TRIPOS>SUBSTRUCTURE
1 MOL         1 TEMP              0 ****  ****    0 ROOT

@<TRIPOS>MOLECULE
MOL
   10    9    1    0    0
SMALL
bcc


@<TRIPOS>ATOM
   1   C1        0.6360    1.3470    0.4890   c3 1 MOL  0.1274
   2   C2        0.0250   -0.0490    0.2740   c3 1 MOL  0.1274
   3   O1        1.0580   -1.0030    0.0580   oh 1 MOL -0.6040
   4   O2        2.0555    1.2700    0.4307   oh 1 MOL -0.6040
   5   H1        0.2858    2.0307   -0.2873   h1 1 MOL  0.0357
   6   H2        0.3406    1.7372    1.4650   h1 1 MOL  0.0357
   7   H3       -0.6350   -0.0380   -0.5960   h1 1 MOL  0.0357
   8   H4       -0.5520   -0.3440    1.1540   h1 1 MOL  0.0357
   9   H5        0.5890   -1.8550   -0.0690   ho 1 MOL  0.4050
  10   H6        2.3614    2.1898    0.5748   ho 1 MOL  0.4050
@<TRIPOS>BOND
    1     1     2  1
    2     2     3  1
    3     1     4  1
    4     1     5  1
    5     1     6  1
    6     2     7  1
    7     2     8  1
    8     3     9  1
    9     4    10  1
@<TRIPOS>SUBSTRUCTURE
1 MOL         1 TEMP              0 ****  ****    0 ROOT

@<TRIPOS>MOLECULE
MOL
   10    9    1    0    0
SMALL
bcc


@<TRIPOS>ATOM
   1   C1        0.6360    1.3470    0.4890   c3 1 MOL  0.1274
   2   C2        0.0250   -0.0490    0.2740   c3 1 MOL  0.1274
   3   O1        1.0580   -1.0030    0.0580   oh 1 MOL -0.6040
   4   O2        2.0546    1.2739    0.4077   oh 1 MOL -0.6040
   5   H1        0.2719    2.0352   -0.2769   h1 1 MOL  0.0357
   6   H2        0.3552    1.7297    1.4722   h1 1 MOL  0.0357
   7   H3       -0.6350   -0.0380   -0.5960   h1 1 MOL  0.0357
   8   H4       -0.5520   -0.3440    1.1540   h1 1 MOL  0.0357
   9   H5        0.5890   -1.8550   -0.0690   ho 1 MOL  0.4050
  10   H6        2.3605    2.1935    0.5534   ho 1 MOL  0.4050
@<TRIPOS>BOND
    1     1     2  1
    2     2     3  1
    3     1     4  1
    4     1     5  1
    5     1     6  1
    6     2     7  1
    7     2     8  1
    8     3     9  1
    9     4    10  1
@<TRIPOS>SUBSTRUCTURE
1 MOL         1 TEMP              0 ****  ****    0 ROOT

@<TRIPOS>MOLECULE
MOL
   10    9    1    0    0
SMALL
bcc


@<TRIPOS>ATOM
   1   C1        0.6360    1.3470    0.4890   c3 1 MOL  0.1274
   2   C2        0.0250   -0.0490    0.2740   c3 1 MOL  0.1274
   3   O1        1.0580   -1.0030    0.0580   oh 1 MOL -0.6040
   4   O2        2.0533    1.2780    0.3847   oh 1 MOL -0.6040
   5   H1        0.2582    2.0395   -0.2662   h1 1 MOL  0.0357
   6   H2        0.3699    1.7222    1.4792   h1 1 MOL  0.0357
   7   H3       -0.6350   -0.0380   -0.5960   h1 1 MOL  0.0357
   8   H4       -0.5520   -0.3440    1.1540   h1 1 MOL  0.0357
   9   H5        0.5890   -1.8550   -0.0690   ho 1 MOL  0.4050
  10   H6        2.3593    2.1973    0.5319   ho 1 MOL  0.4050
@<TRIPOS>BOND
    1     1     2  1
    2     2     3  1
    3     1     4  1
    4     1     5  1
    5     1     6  1
    6     2     7  1
    7     2     8  1
    8     3     9  1
    9     4    10  1
@<TRIPOS>SUBSTRUCTURE
1 MOL         1 TEMP              0 ****  ****    0 ROOT

@<TRIPOS>MOLECULE
MOL
   10    9    1    0    0
SMALL
bcc


@<TRIPOS>ATOM
   1   C1        0.6360    1.3470    0.4890   c3 1 MOL  0.1274
   2   C2        0.0250   -0.0490    0.2740   c3 1 MOL  0.1274
   3   O1        1.0580   -1.0030    0.0580   oh 1 MOL -0.6040
   4   O2        2.0516    1.2823    0.3618   oh 1 MOL -0.6040
   5   H1        0.2447    2.0438   -0.2553   h1 1 MOL  0.0357
   6   H2        0.3847    1.7146    1.4858   h1 1 MOL  0.0357
   7   H3       -0.6350   -0.0380   -0.5960   h1 1 MOL  0.0357
   8   H4       -0.5520   -0.3440    1.1540   h1 1 MOL  0.0357
   9   H5        0.5890   -1.8550   -0.0690   ho 1 MOL  0.4050
  10   H6        2.3577    2.2013    0.5106   ho 1 MOL  0.4050
@<TRIPOS>BOND
    1     1     2  1
    2     2     3  1
    3     1     4  1
    4     1     5  1
    5     1     6  1
    6     2     7  1
    7     2     8  1
    8     3     9  1
    9     4    10  1
@<TRIPOS>SUBSTRUCTURE
1 MOL         1 TEMP              0 ****  ****    0 ROOT

@<TRIPOS>MOLECULE
MOL
   10    9    1    0    0
SMALL
bcc


@<TRIPOS>ATOM
   1   C1        0.6360    1.3470    0.4890   c3 1 MOL  0.1274
   2   C2        0.0250   -0.0490    0.2740   c3 1 MOL  0.1274
   3   O1        1.0580   -1.0030    0.0580   oh 1 MOL -0.6040
   4   O2        2.0496    1.2867    0.3390   oh 1 MOL -0.6040
   5   H1        0.2313    2.0479   -0.2442   h1 1 MOL  0.0357
   6   H2        0.3996    1.7071    1.4922   h1 1 MOL  0.0357
   7   H3       -0.6350   -0.0380   -0.5960   h1 1 MOL  0.0357
   8   H4       -0.5520   -0.3440    1.1540   h1 1 MOL  0.0357
   9   H5        0.5890   -1.8550   -0.0690   ho 1 MOL  0.4050
  10   H6        2.3558    2.2054    0.4893   ho 1 MOL  0.4050
@<TRIPOS>BOND
    1     1     2  1
    2     2     3  1
    3     1     4  1
    4     1     5  1
    5     1     6  1
    6     2     7  1
    7     2     8  1
    8     3     9  1
    9     4    10  1
@<TRIPOS>SUBSTRUCTURE
1 MOL         1 TEMP              0 ****  ****    0 ROOT

@<TRIPOS>MOLECULE
MOL
   10    9    1    0    0
SMALL
bcc


@<TRIPOS>ATOM
   1   C1        0.6360    1.3470    0.4890   c3 1 MOL  0.1274
   2   C2        0.0250   -0.0490    0.2740   c3 1 MOL  0.1274
   3   O1        1.0580   -1.0030    0.0580   oh 1 MOL -0.6040
   4   O2        2.0472    1.2913    0.3163   oh 1 MOL -0.6040
   5   H1        0.2180    2.0520   -0.2328   h1 1 MOL  0.0357
   6   H2        0.4147    1.6996    1.4983   h1 1 MOL  0.0357
   7   H3       -0.6350   -0.0380   -0.5960   h1 1 MOL  0.0357
   8   H4       -0.5520   -0.3440    1.1540   h1 1 MOL  0.0357
   9   H5        0.5890   -1.8550   -0.0690   ho 1 MOL  0.4050
  10   H6        2.3535    2.2096    0.4680   ho 1 MOL  0.4050
@<TRIPOS>BOND
    1     1     2  1
    2     2     3  1
    3     1     4  1
    4     1     5  1
    5     1     6  1
    6     2     7  1
    7     2     8  1
    8     3     9  1
    9     4    10  1
@<TRIPOS>SUBSTRUCTURE
1 MOL         1 TEMP              0 ****  ****    0 ROOT

@<TRIPOS>MOLECULE
MOL
   10    9    1    0    0
SMALL
bcc


@<TRIPOS>ATOM
   1   C1        0.6360    1.3470    0.4890   c3 1 MOL  0.1274
   2   C2        0.0250   -0.0490    0.2740   c3 1 MOL  0.1274
   3   O1        1.0580   -1.0030    0.0580   oh 1 MOL -0.6040
   4   O2        2.0444    1.2960    0.2936   oh 1 MOL -0.6040
   5   H1        0.2050    2.0559   -0.2212   h1 1 MOL  0.0357
   6   H2        0.4299    1.6920    1.5041   h1 1 MOL  0.0357
   7   H3       -0.6350   -0.0380   -0.5960   h1 1 MOL  0.0357
   8   H4       -0.5520   -0.3440    1.1540   h1 1 MOL  0.0357
   9   H5        0.5890   -1.8550   -0.0690   ho 1 MOL  0.4050
  10   H6        2.3509    2.2140    0.4468   ho 1 MOL  0.4050
@<TRIPOS>BOND
    1     1     2  1
    2     2     3  1
    3     1     4  1
    4     1     5  1
    5     1     6  1
    6     2     7  1
    7     2     8  1
    8     3     9  1
    9     4    10  1
@<TRIPOS>SUBSTRUCTURE
1 MOL         1 TEMP              0 ****  ****    0 ROOT

@<TRIPOS>MOLECULE
MOL
   10    9    1    0    0
SMALL
bcc


@<TRIPOS>ATOM
   1   C1        0.6360    1.3470    0.4890   c3 1 MOL  0.1274
   2   C2        0.0250   -0.0490    0.2740   c3 1 MOL  0.1274
   3   O1        1.0580   -1.0030    0.0580   oh 1 MOL -0.6040
   4   O2        2.0412    1.3009    0.2710   oh 1 MOL -0.6040
   5   H1        0.1921    2.0597   -0.2093   h1 1 MOL  0.0357
   6   H2        0.4451    1.6845    1.5096   h1 1 MOL  0.0357
   7   H3       -0.6350   -0.0380   -0.5960   h1 1 MOL  0.0357
   8   H4       -0.5520   -0.3440    1.1540   h1 1 MOL  0.0357
   9   H5        0.5890   -1.8550   -0.0690   ho 1 MOL  0.4050
  10   H6        2.3480    2.2186    0.4257   ho 1 MOL  0.4050
@<TRIPOS>BOND
    1     1     2  1
    2     2     3  1
    3     1     4  1
    4     1     5  1
    5     1     6  1
    6     2     7  1
    7     2     8  1
    8     3     9  1
    9     4    10  1
@<TRIPOS>SUBSTRUCTURE
1 MOL         1 TEMP              0 ****  ****    0 ROOT

@<TRIPOS>MOLECULE
MOL
   10    9    1    0    0
SMALL
bcc


@<TRIPOS>ATOM
   1   C1        0.6360    1.3470    0.4890   c3 1 MOL  0.1274
   2   C2        0.0250   -0.0490    0.2740   c3 1 MOL  0.1274
   3   O1        1.0580   -1.0030    0.0580   oh 1 MOL -0.6040
   4   O2        2.0377    1.3059    0.2484   oh 1 MOL -0.6040
   5   H1        0.1794    2.0634   -0.1972   h1 1 MOL  0.0357
   6   H2        0.4605    1.6770    1.5148   h1 1 MOL  0.0357
   7   H3       -0.6350   -0.0380   -0.5960   h1 1 MOL  0.0357
   8   H4       -0.5520   -0.3440    1.1540   h1 1 MOL  0.0357
   9   H5        0.5890   -1.8550   -0.0690   ho 1 MOL  0.4050
  10   H6        2.3447    2.2233    0.4047   ho 1 MOL  0.4050
@<TRIPOS>BOND
    1     1     2  1
    2     2     3  1
    3     1     4  1
    4     1     5  1
    5     1     6  1
    6     2     7  1
    7     2     8  1
    8     3     9  1
    9     4    10  1
@<TRIPOS>SUBSTRUCTURE
1 MOL         1 TEMP              0 ****  ****    0 ROOT

@<TRIPOS>MOLECULE
MOL
   10    9    1    0    0
SMALL
bcc


@<TRIPOS>ATOM
   1   C1        0.6360    1.3470    0.4890   c3 1 MOL  0.1274
   2   C2        0.0250   -0.0490    0.2740   c3 1 MOL  0.1274
   3   O1        1.0580   -1.0030    0.0580   oh 1 MOL -0.6040
   4   O2        2.0338    1.3110    0.2260   oh 1 MOL -0.6040
   5   H1        0.1669    2.0670   -0.1849   h1 1 MOL  0.0357
   6   H2        0.4760    1.6694    1.5198   h1 1 MOL  0.0357
   7   H3       -0.6350   -0.0380   -0.5960   h1 1 MOL  0.0357
   8   H4       -0.5520   -0.3440    1.1540   h1 1 MOL  0.0357
   9   H5        0.5890   -1.8550   -0.0690   ho 1 MOL  0.4050
  10   H6        2.3410    2.2281    0.3838   ho 1 MOL  0.4050
@<TRIPOS>BOND
    1     1     2  1
    2     2     3  1
    3     1     4  1
    4     1     5  1
    5     1     6  1
    6     2     7  1
    7     2     8  1
    8     3     9  1
    9     4    10  1
@<TRIPOS>SUBSTRUCTURE
1 MOL         1 TEMP              0 ****  ****    0 ROOT

@<TRIPOS>MOLECULE
MOL
   10    9    1    0    0
SMALL
bcc


@<TRIPOS>ATOM
   1   C1        0.6360    1.3470    0.4890   c3 1 MOL  0.1274
   2   C2        0.0250   -0.0490    0.2740   c3 1 MOL  0.1274
   3   O1        1.0580   -1.0030    0.0580   oh 1 MOL -0.6040
   4   O2        2.0295    1.3163    0.2037   oh 1 MOL -0.6040
   5   H1        0.1545    2.0705   -0.1724   h1 1 MOL  0.0357
   6   H2        0.4916    1.6619    1.5244   h1 1 MOL  0.0357
   7   H3       -0.6350   -0.0380   -0.5960   h1 1 MOL  0.0357
   8   H4       -0.5520   -0.3440    1.1540   h1 1 MOL  0.0357
   9   H5        0.5890   -1.8550   -0.0690   ho 1 MOL  0.4050
  10   H6        2.3370    2.2330    0.3629   ho 1 MOL  0.4050
@<TRIPOS>BOND
    1     1     2  1
    2     2     3  1
    3     1     4  1
    4     1     5  1
    5     1     6  1
    6     2     7  1
    7     2     8  1
    8     3     9  1
    9     4    10  1
@<TRIPOS>SUBSTRUCTURE
1 MOL         1 TEMP              0 ****  ****    0 ROOT

@<TRIPOS>MOLECULE
MOL
   10    9    1    0    0
SMALL
bcc


@<TRIPOS>ATOM
   1   C1        0.6360    1.3470    0.4890   c3 1 MOL  0.1274
   2   C2        0.0250   -0.0490    0.2740   c3 1 MOL  0.1274
   3   O1        1.0580   -1.0030    0.0580   oh 1 MOL -0.6040
   4   O2        2.0249    1.3218    0.1815   oh 1 MOL -0.6040
   5   H1        0.1424    2.0738   -0.1597   h1 1 MOL  0.0357
   6   H2        0.5073    1.6544    1.5287   h1 1 MOL  0.0357
   7   H3       -0.6350   -0.0380   -0.5960   h1 1 MOL  0.0357
   8   H4       -0.5520   -0.3440    1.1540   h1 1 MOL  0.0357
   9   H5        0.5890   -1.8550   -0.0690   ho 1 MOL  0.4050
  10   H6        2.3327    2.2381    0.3422   ho 1 MOL  0.4050
@<TRIPOS>BOND
    1     1     2  1
    2     2     3  1
    3     1     4  1
    4     1     5  1
    5     1     6  1
    6     2     7  1
    7     2     8  1
    8     3     9  1
    9     4    10  1
@<TRIPOS>SUBSTRUCTURE
1 MOL         1 TEMP              0 ****  ****    0 ROOT

@<TRIPOS>MOLECULE
MOL
   10    9    1    0    0
SMALL
bcc


@<TRIPOS>ATOM
   1   C1        0.6360    1.3470    0.4890   c3 1 MOL  0.1274
   2   C2        0.0250   -0.0490    0.2740   c3 1 MOL  0.1274
   3   O1        1.0580   -1.0030    0.0580   oh 1 MOL -0.6040
   4   O2        2.0199    1.3274    0.1593   oh 1 MOL -0.6040
   5   H1        0.1304    2.0770   -0.1467   h1 1 MOL  0.0357
   6   H2        0.5230    1.6469    1.5327   h1 1 MOL  0.0357
   7   H3       -0.6350   -0.0380   -0.5960   h1 1 MOL  0.0357
   8   H4       -0.5520   -0.3440    1.1540   h1 1 MOL  0.0357
   9   H5        0.5890   -1.8550   -0.0690   ho 1 MOL  0.4050
  10   H6        2.3280    2.2434    0.3216   ho 1 MOL  0.4050
@<TRIPOS>BOND
    1     1     2  1
    2     2     3  1
    3     1     4  1
    4     1     5  1
    5     1     6  1
    6     2     7  1
    7     2     8  1
    8     3     9  1
    9     4    10  1
@<TRIPOS>SUBSTRUCTURE
1 MOL         1 TEMP              0 ****  ****    0 ROOT

@<TRIPOS>MOLECULE
MOL
   10    9    1    0    0
SMALL
bcc


@<TRIPOS>ATOM
   1   C1        0.6360    1.3470    0.4890   c3 1 MOL  0.1274
   2   C2        0.0250   -0.0490    0.2740   c3 1 MOL  0.1274
   3   O1        1.0580   -1.0030    0.0580   oh 1 MOL -0.6040
   4   O2        2.0146    1.3331    0.1374   oh 1 MOL -0.6040
   5   H1        0.1187    2.0802   -0.1335   h1 1 MOL  0.0357
   6   H2        0.5389    1.6394    1.5364   h1 1 MOL  0.0357
   7   H3       -0.6350   -0.0380   -0.5960   h1 1 MOL  0.0357
   8   H4       -0.5520   -0.3440    1.1540   h1 1 MOL  0.0357
   9   H5        0.5890   -1.8550   -0.0690   ho 1 MOL  0.4050
  10   H6        2.3230    2.2487    0.3010   ho 1 MOL  0.4050
@<TRIPOS>BOND
    1     1     2  1
    2     2     3  1
    3     1     4  1
    4     1     5  1
    5     1     6  1
    6     2     7  1
    7     2     8  1
    8     3     9  1
    9     4    10  1
@<TRIPOS>SUBSTRUCTURE
1 MOL         1 TEMP              0 ****  ****    0 ROOT

@<TRIPOS>MOLECULE
MOL
   10    9    1    0    0
SMALL
bcc


@<TRIPOS>ATOM
   1   C1        0.6360    1.3470    0.4890   c3 1 MOL  0.1274
   2   C2        0.0250   -0.0490    0.2740   c3 1 MOL  0.1274
   3   O1        1.0580   -1.0030    0.0580   oh 1 MOL -0.6040
   4   O2        2.0089    1.3390    0.1155   oh 1 MOL -0.6040
   5   H1        0.1072    2.0831   -0.1202   h1 1 MOL  0.0357
   6   H2        0.5548    1.6319    1.5398   h1 1 MOL  0.0357
   7   H3       -0.6350   -0.0380   -0.5960   h1 1 MOL  0.0357
   8   H4       -0.5520   -0.3440    1.1540   h1 1 MOL  0.0357
   9   H5        0.5890   -1.8550   -0.0690   ho 1 MOL  0.4050
  10   H6        2.3177    2.2542    0.2806   ho 1 MOL  0.4050
@<TRIPOS>BOND
    1     1     2  1
    2     2     3  1
    3     1     4  1
    4     1     5  1
    5     1     6  1
    6     2     7  1
    7     2     8  1
    8     3     9  1
    9     4    10  1
@<TRIPOS>SUBSTRUCTURE
1 MOL         1 TEMP              0 ****  ****    0 ROOT

@<TRIPOS>MOLECULE
MOL
   10    9    1    0    0
SMALL
bcc


@<TRIPOS>ATOM
   1   C1        0.6360    1.3470    0.4890   c3 1 MOL  0.1274
   2   C2        0.0250   -0.0490    0.2740   c3 1 MOL  0.1274
   3   O1        1.0580   -1.0030    0.0580   oh 1 MOL -0.6040
   4   O2        2.0028    1.3450    0.0938   oh 1 MOL -0.6040
   5   H1        0.0958    2.0860   -0.1066   h1 1 MOL  0.0357
   6   H2        0.5707    1.6244    1.5429   h1 1 MOL  0.0357
   7   H3       -0.6350   -0.0380   -0.5960   h1 1 MOL  0.0357
   8   H4       -0.5520   -0.3440    1.1540   h1 1 MOL  0.0357
   9   H5        0.5890   -1.8550   -0.0690   ho 1 MOL  0.4050
  10   H6        2.3120    2.2598    0.2604   ho 1 MOL  0.4050
@<TRIPOS>BOND
    1     1     2  1
    2     2     3  1
    3     1     4  1
    4     1     5  1
    5     1     6  1
    6     2     7  1
    7     2     8  1
    8     3     9  1
    9     4    10  1
@<TRIPOS>SUBSTRUCTURE
1 MOL         1 TEMP              0 ****  ****    0 ROOT

@<TRIPOS>MOLECULE
MOL
   10    9    1    0    0
SMALL
bcc


@<TRIPOS>ATOM
   1   C1        0.6360    1.3470    0.4890   c3 1 MOL  0.1274
   2   C2        0.0250   -0.0490    0.2740   c3 1 MOL  0.1274
   3   O1        1.0580   -1.0030    0.0580   oh 1 MOL -0.6040
   4   O2        1.9964    1.3511    0.0722   oh 1 MOL -0.6040
   5   H1        0.0847    2.0888   -0.0928   h1 1 MOL  0.0357
   6   H2        0.5868    1.6170    1.5457   h1 1 MOL  0.0357
   7   H3       -0.6350   -0.0380   -0.5960   h1 1 MOL  0.0357
   8   H4       -0.5520   -0.3440    1.1540   h1 1 MOL  0.0357
   9   H5        0.5890   -1.8550   -0.0690   ho 1 MOL  0.4050
  10   H6        2.3060    2.2655    0.2402   ho 1 MOL  0.4050
@<TRIPOS>BOND
    1     1     2  1
    2     2     3  1
    3     1     4  1
    4     1     5  1
    5     1     6  1
    6     2     7  1
    7     2     8  1
    8     3     9  1
    9     4    10  1
@<TRIPOS>SUBSTRUCTURE
1 MOL         1 TEMP              0 ****  ****    0 ROOT

@<TRIPOS>MOLECULE
MOL
   10    9    1    0    0
SMALL
bcc


@<TRIPOS>ATOM
   1   C1        0.6360    1.3470    0.4890   c3 1 MOL  0.1274
   2   C2        0.0250   -0.0490    0.2740   c3 1 MOL  0.1274
   3   O1        1.0580   -1.0030    0.0580   oh 1 MOL -0.6040
   4   O2        1.9896    1.3574    0.0508   oh 1 MOL -0.6040
   5   H1        0.0738    2.0914   -0.0788   h1 1 MOL  0.0357
   6   H2        0.6029    1.6095    1.5482   h1 1 MOL  0.0357
   7   H3       -0.6350   -0.0380   -0.5960   h1 1 MOL  0.0357
   8   H4       -0.5520   -0.3440    1.1540   h1 1 MOL  0.0357
   9   H5        0.5890   -1.8550   -0.0690   ho 1 MOL  0.4050
  10   H6        2.2996    2.2714    0.2202   ho 1 MOL  0.4050
@<TRIPOS>BOND
    1     1     2  1
    2     2     3  1
    3     1     4  1
    4     1     5  1
    5     1     6  1
    6     2     7  1
    7     2     8  1
    8     3     9  1
    9     4    10  1
@<TRIPOS>SUBSTRUCTURE
1 MOL         1 TEMP              0 ****  ****    0 ROOT

@<TRIPOS>MOLECULE
MOL
   10    9    1    0    0
SMALL
bcc


@<TRIPOS>ATOM
   1   C1        0.6360    1.3470    0.4890   c3 1 MOL  0.1274
   2   C2        0.0250   -0.0490    0.2740   c3 1 MOL  0.1274
   3   O1        1.0580   -1.0030    0.0580   oh 1 MOL -0.6040
   4   O2        1.9824    1.3638    0.0295   oh 1 MOL -0.6040
   5   H1        0.0631    2.0939   -0.0647   h1 1 MOL  0.0357
   6   H2        0.6190    1.6021    1.5504   h1 1 MOL  0.0357
   7   H3       -0.6350   -0.0380   -0.5960   h1 1 MOL  0.0357
   8   H4       -0.5520   -0.3440    1.1540   h1 1 MOL  0.0357
   9   H5        0.5890   -1.8550   -0.0690   ho 1 MOL  0.4050
  10   H6        2.2930    2.2774    0.2004   ho 1 MOL  0.4050
@<TRIPOS>BOND
    1     1     2  1
    2     2     3  1
    3     1     4  1
    4     1     5  1
    5     1     6  1
    6     2     7  1
    7     2     8  1
    8     3     9  1
    9     4    10  1
@<TRIPOS>SUBSTRUCTURE
1 MOL         1 TEMP              0 ****  ****    0 ROOT

@<TRIPOS>MOLECULE
MOL
   10    9    1    0    0
SMALL
bcc


@<TRIPOS>ATOM
   1   C1        0.6360    1.3470    0.4890   c3 1 MOL  0.1274
   2   C2        0.0250   -0.0490    0.2740   c3 1 MOL  0.1274
   3   O1        1.0580   -1.0030    0.0580   oh 1 MOL -0.6040
   4   O2        1.9749    1.3703    0.0084   oh 1 MOL -0.6040
   5   H1        0.0526    2.0963   -0.0504   h1 1 MOL  0.0357
   6   H2        0.6352    1.5947    1.5523   h1 1 MOL  0.0357
   7   H3       -0.6350   -0.0380   -0.5960   h1 1 MOL  0.0357
   8   H4       -0.5520   -0.3440    1.1540   h1 1 MOL  0.0357
   9   H5        0.5890   -1.8550   -0.0690   ho 1 MOL  0.4050
  10   H6        2.2860    2.2835    0.1807   ho 1 MOL  0.4050
@<TRIPOS>BOND
    1     1     2  1
    2     2     3  1
    3     1     4  1
    4     1     5  1
    5     1     6  1
    6     2     7  1
    7     2     8  1
    8     3     9  1
    9     4    10  1
@<TRIPOS>SUBSTRUCTURE
1 MOL         1 TEMP              0 ****  ****    0 ROOT

@<TRIPOS>MOLECULE
MOL
   10    9    1    0    0
SMALL
bcc


@<TRIPOS>ATOM
   1   C1        0.6360    1.3470    0.4890   c3 1 MOL  0.1274
   2   C2        0.0250   -0.0490    0.2740   c3 1 MOL  0.1274
   3   O1        1.0580   -1.0030    0.0580   oh 1 MOL -0.6040
   4   O2        1.9671    1.3770   -0.0126   oh 1 MOL -0.6040
   5   H1        0.0424    2.0985   -0.0358   h1 1 MOL  0.0357
   6   H2        0.6515    1.5874    1.5539   h1 1 MOL  0.0357
   7   H3       -0.6350   -0.0380   -0.5960   h1 1 MOL  0.0357
   8   H4       -0.5520   -0.3440    1.1540   h1 1 MOL  0.0357
   9   H5        0.5890   -1.8550   -0.0690   ho 1 MOL  0.4050
  10   H6        2.2786    2.2897    0.1611   ho 1 MOL  0.4050
@<TRIPOS>BOND
    1     1     2  1
    2     2     3  1
    3     1     4  1
    4     1     5  1
    5     1     6  1
    6     2     7  1
    7     2     8  1
    8     3     9  1
    9     4    10  1
@<TRIPOS>SUBSTRUCTURE
1 MOL         1 TEMP              0 ****  ****    0 ROOT

@<TRIPOS>MOLECULE
MOL
   10    9    1    0    0
SMALL
bcc


@<TRIPOS>ATOM
   1   C1        0.6360    1.3470    0.4890   c3 1 MOL  0.1274
   2   C2        0.0250   -0.0490    0.2740   c3 1 MOL  0.1274
   3   O1        1.0580   -1.0030    0.0580   oh 1 MOL -0.6040
   4   O2        1.9589    1.3837   -0.0334   oh 1 MOL -0.6040
   5   H1        0.0323    2.1006   -0.0211   h1 1 MOL  0.0357
   6   H2        0.6678    1.5801    1.5552   h1 1 MOL  0.0357
   7   H3       -0.6350   -0.0380   -0.5960   h1 1 MOL  0.0357
   8   H4       -0.5520   -0.3440    1.1540   h1 1 MOL  0.0357
   9   H5        0.5890   -1.8550   -0.0690   ho 1 MOL  0.4050
  10   H6        2.2710    2.2960    0.1417   ho 1 MOL  0.4050
@<TRIPOS>BOND
    1     1     2  1
    2     2     3  1
    3     1     4  1
    4     1     5  1
    5     1     6  1
    6     2     7  1
    7     2     8  1
    8     3     9  1
    9     4    10  1
@<TRIPOS>SUBSTRUCTURE
1 MOL         1 TEMP              0 ****  ****    0 ROOT

@<TRIPOS>MOLECULE
MOL
   10    9    1    0    0
SMALL
bcc


@<TRIPOS>ATOM
   1   C1        0.6360    1.3470    0.4890   c3 1 MOL  0.1274
   2   C2        0.0250   -0.0490    0.2740   c3 1 MOL  0.1274
   3   O1        1.0580   -1.0030    0.0580   oh 1 MOL -0.6040
   4   O2        1.9504    1.3907   -0.0540   oh 1 MOL -0.6040
   5   H1        0.0225    2.1026   -0.0063   h1 1 MOL  0.0357
   6   H2        0.6841    1.5728    1.5561   h1 1 MOL  0.0357
   7   H3       -0.6350   -0.0380   -0.5960   h1 1 MOL  0.0357
   8   H4       -0.5520   -0.3440    1.1540   h1 1 MOL  0.0357
   9   H5        0.5890   -1.8550   -0.0690   ho 1 MOL  0.4050
  10   H6        2.2630    2.3025    0.1225   ho 1 MOL  0.4050
@<TRIPOS>BOND
    1     1     2  1
    2     2     3  1
    3     1     4  1
    4     1     5  1
    5     1     6  1
    6     2     7  1
    7     2     8  1
    8     3     9  1
    9     4    10  1
@<TRIPOS>SUBSTRUCTURE
1 MOL         1 TEMP              0 ****  ****    0 ROOT

@<TRIPOS>MOLECULE
MOL
   10    9    1    0    0
SMALL
bcc


@<TRIPOS>ATOM
   1   C1        0.6360    1.3470    0.4890   c3 1 MOL  0.1274
   2   C2        0.0250   -0.0490    0.2740   c3 1 MOL  0.1274
   3   O1        1.0580   -1.0030    0.0580   oh 1 MOL -0.6040
   4   O2        1.9415    1.3977   -0.0744   oh 1 MOL -0.6040
   5   H1        0.0130    2.1045    0.0088   h1 1 MOL  0.0357
   6   H2        0.7005    1.5655    1.5568   h1 1 MOL  0.0357
   7   H3       -0.6350   -0.0380   -0.5960   h1 1 MOL  0.0357
   8   H4       -0.5520   -0.3440    1.1540   h1 1 MOL  0.0357
   9   H5        0.5890   -1.8550   -0.0690   ho 1 MOL  0.4050
  10   H6        2.2547    2.3090    0.1034   ho 1 MOL  0.4050
@<TRIPOS>BOND
    1     1     2  1
    2     2     3  1
    3     1     4  1
    4     1     5  1
    5     1     6  1
    6     2     7  1
    7     2     8  1
    8     3     9  1
    9     4    10  1
@<TRIPOS>SUBSTRUCTURE
1 MOL         1 TEMP              0 ****  ****    0 ROOT

@<TRIPOS>MOLECULE
MOL
   10    9    1    0    0
SMALL
bcc


@<TRIPOS>ATOM
   1   C1        0.6360    1.3470    0.4890   c3 1 MOL  0.1274
   2   C2        0.0250   -0.0490    0.2740   c3 1 MOL  0.1274
   3   O1        1.0580   -1.0030    0.0580   oh 1 MOL -0.6040
   4   O2        1.9323    1.4048   -0.0946   oh 1 MOL -0.6040
   5   H1        0.0036    2.1063    0.0239   h1 1 MOL  0.0357
   6   H2        0.7169    1.5583    1.5571   h1 1 MOL  0.0357
   7   H3       -0.6350   -0.0380   -0.5960   h1 1 MOL  0.0357
   8   H4       -0.5520   -0.3440    1.1540   h1 1 MOL  0.0357
   9   H5        0.5890   -1.8550   -0.0690   ho 1 MOL  0.4050
  10   H6        2.2461    2.3157    0.0846   ho 1 MOL  0.4050
@<TRIPOS>BOND
    1     1     2  1
    2     2     3  1
    3     1     4  1
    4     1     5  1
    5     1     6  1
    6     2     7  1
    7     2     8  1
    8     3     9  1
    9     4    10  1
@<TRIPOS>SUBSTRUCTURE
1 MOL         1 TEMP              0 ****  ****    0 ROOT

@<TRIPOS>MOLECULE
MOL
   10    9    1    0    0
SMALL
bcc


@<TRIPOS>ATOM
   1   C1        0.6360    1.3470    0.4890   c3 1 MOL  0.1274
   2   C2        0.0250   -0.0490    0.2740   c3 1 MOL  0.1274
   3   O1        1.0580   -1.0030    0.0580   oh 1 MOL -0.6040
   4   O2        1.9227    1.4121   -0.1146   oh 1 MOL -0.6040
   5   H1       -0.0055    2.1079    0.0393   h1 1 MOL  0.0357
   6   H2        0.7333    1.5511    1.5571   h1 1 MOL  0.0357
   7   H3       -0.6350   -0.0380   -0.5960   h1 1 MOL  0.0357
   8   H4       -0.5520   -0.3440    1.1540   h1 1 MOL  0.0357
   9   H5        0.5890   -1.8550   -0.0690   ho 1 MOL  0.4050
  10   H6        2.2372    2.3225    0.0659   ho 1 MOL  0.4050
@<TRIPOS>BOND
    1     1     2  1
    2     2     3  1
    3     1     4  1
    4     1     5  1
    5     1     6  1
    6     2     7  1
    7     2     8  1
    8     3     9  1
    9     4    10  1
@<TRIPOS>SUBSTRUCTURE
1 MOL         1 TEMP              0 ****  ****    0 ROOT

@<TRIPOS>MOLECULE
MOL
   10    9    1    0    0
SMALL
bcc


@<TRIPOS>ATOM
   1   C1        0.6360    1.3470    0.4890   c3 1 MOL  0.1274
   2   C2        0.0250   -0.0490    0.2740   c3 1 MOL  0.1274
   3   O1        1.0580   -1.0030    0.0580   oh 1 MOL -0.6040
   4   O2        1.9129    1.4195   -0.1344   oh 1 MOL -0.6040
   5   H1       -0.0143    2.1094    0.0548   h1 1 MOL  0.0357
   6   H2        0.7497    1.5440    1.5568   h1 1 MOL  0.0357
   7   H3       -0.6350   -0.0380   -0.5960   h1 1 MOL  0.0357
   8   H4       -0.5520   -0.3440    1.1540   h1 1 MOL  0.0357
   9   H5        0.5890   -1.8550   -0.0690   ho 1 MOL  0.4050
  10   H6        2.2280    2.3294    0.0474   ho 1 MOL  0.4050
@<TRIPOS>BOND
    1     1     2  1
    2     2     3  1
    3     1     4  1
    4     1     5  1
    5     1     6  1
    6     2     7  1
    7     2     8  1
    8     3     9  1
    9     4    10  1
@<TRIPOS>SUBSTRUCTURE
1 MOL         1 TEMP              0 ****  ****    0 ROOT

@<TRIPOS>MOLECULE
MOL
   10    9    1    0    0
SMALL
bcc


@<TRIPOS>ATOM
   1   C1        0.6360    1.3470    0.4890   c3 1 MOL  0.1274
   2   C2        0.0250   -0.0490    0.2740   c3 1 MOL  0.1274
   3   O1        1.0580   -1.0030    0.0580   oh 1 MOL -0.6040
   4   O2        1.9027    1.4270   -0.1540   oh 1 MOL -0.6040
   5   H1       -0.0229    2.1107    0.0705   h1 1 MOL  0.0357
   6   H2        0.7661    1.5369    1.5563   h1 1 MOL  0.0357
   7   H3       -0.6350   -0.0380   -0.5960   h1 1 MOL  0.0357
   8   H4       -0.5520   -0.3440    1.1540   h1 1 MOL  0.0357
   9   H5        0.5890   -1.8550   -0.0690   ho 1 MOL  0.4050
  10   H6        2.2184    2.3364    0.0291   ho 1 MOL  0.4050
@<TRIPOS>BOND
    1     1     2  1
    2     2     3  1
    3     1     4  1
    4     1     5  1
    5     1     6  1
    6     2     7  1
    7     2     8  1
    8     3     9  1
    9     4    10  1
@<TRIPOS>SUBSTRUCTURE
1 MOL         1 TEMP              0 ****  ****    0 ROOT

@<TRIPOS>MOLECULE
MOL
   10    9    1    0    0
SMALL
bcc


@<TRIPOS>ATOM
   1   C1        0.6360    1.3470    0.4890   c3 1 MOL  0.1274
   2   C2        0.0250   -0.0490    0.2740   c3 1 MOL  0.1274
   3   O1        1.0580   -1.0030    0.0580   oh 1 MOL -0.6040
   4   O2        1.8921    1.4346   -0.1734   oh 1 MOL -0.6040
   5   H1       -0.0313    2.1120    0.0862   h1 1 MOL  0.0357
   6   H2        0.7825    1.5298    1.5554   h1 1 MOL  0.0357
   7   H3       -0.6350   -0.0380   -0.5960   h1 1 MOL  0.0357
   8   H4       -0.5520   -0.3440    1.1540   h1 1 MOL  0.0357
   9   H5        0.5890   -1.8550   -0.0690   ho 1 MOL  0.4050
  10   H6        2.2086    2.3435    0.0110   ho 1 MOL  0.4050
@<TRIPOS>BOND
    1     1     2  1
    2     2     3  1
    3     1     4  1
    4     1     5  1
    5     1     6  1
    6     2     7  1
    7     2     8  1
    8     3     9  1
    9     4    10  1
@<TRIPOS>SUBSTRUCTURE
1 MOL         1 TEMP              0 ****  ****    0 ROOT

@<TRIPOS>MOLECULE
MOL
   10    9    1    0    0
SMALL
bcc


@<TRIPOS>ATOM
   1   C1        0.6360    1.3470    0.4890   c3 1 MOL  0.1274
   2   C2        0.0250   -0.0490    0.2740   c3 1 MOL  0.1274
   3   O1        1.0580   -1.0030    0.0580   oh 1 MOL -0.6040
   4   O2        1.8813    1.4423   -0.1926   oh 1 MOL -0.6040
   5   H1       -0.0394    2.1131    0.1022   h1 1 MOL  0.0357
   6   H2        0.7990    1.5228    1.5542   h1 1 MOL  0.0357
   7   H3       -0.6350   -0.0380   -0.5960   h1 1 MOL  0.0357
   8   H4       -0.5520   -0.3440    1.1540   h1 1 MOL  0.0357
   9   H5        0.5890   -1.8550   -0.0690   ho 1 MOL  0.4050
  10   H6        2.1984    2.3507   -0.0069   ho 1 MOL  0.4050
@<TRIPOS>BOND
    1     1     2  1
    2     2     3  1
    3     1     4  1
    4     1     5  1
    5     1     6  1
    6     2     7  1
    7     2     8  1
    8     3     9  1
    9     4    10  1
@<TRIPOS>SUBSTRUCTURE
1 MOL         1 TEMP              0 ****  ****    0 ROOT

@<TRIPOS>MOLECULE
MOL
   10    9    1    0    0
SMALL
bcc


@<TRIPOS>ATOM
   1   C1        0.6360    1.3470    0.4890   c3 1 MOL  0.1274
   2   C2        0.0250   -0.0490    0.2740   c3 1 MOL  0.1274
   3   O1        1.0580   -1.0030    0.0580   oh 1 MOL -0.6040
   4   O2        1.8701    1.4501   -0.2115   oh 1 MOL -0.6040
   5   H1       -0.0473    2.1140    0.1182   h1 1 MOL  0.0357
   6   H2        0.8154    1.5158    1.5526   h1 1 MOL  0.0357
   7   H3       -0.6350   -0.0380   -0.5960   h1 1 MOL  0.0357
   8   H4       -0.5520   -0.3440    1.1540   h1 1 MOL  0.0357
   9   H5        0.5890   -1.8550   -0.0690   ho 1 MOL  0.4050
  10   H6        2.1880    2.3580   -0.0246   ho 1 MOL  0.4050
@<TRIPOS>BOND
    1     1     2  1
    2     2     3  1
    3     1     4  1
    4     1     5  1
    5     1     6  1
    6     2     7  1
    7     2     8  1
    8     3     9  1
    9     4    10  1
@<TRIPOS>SUBSTRUCTURE
1 MOL         1 TEMP              0 ****  ****    0 ROOT

@<TRIPOS>MOLECULE
MOL
   10    9    1    0    0
SMALL
bcc


@<TRIPOS>ATOM
   1   C1        0.6360    1.3470    0.4890   c3 1 MOL  0.1274
   2   C2        0.0250   -0.0490    0.2740   c3 1 MOL  0.1274
   3   O1        1.0580   -1.0030    0.0580   oh 1 MOL -0.6040
   4   O2        1.8586    1.4580   -0.2302   oh 1 MOL -0.6040
   5   H1       -0.0549    2.1149    0.1344   h1 1 MOL  0.0357
   6   H2        0.8318    1.5089    1.5508   h1 1 MOL  0.0357
   7   H3       -0.6350   -0.0380   -0.5960   h1 1 MOL  0.0357
   8   H4       -0.5520   -0.3440    1.1540   h1 1 MOL  0.0357
   9   H5        0.5890   -1.8550   -0.0690   ho 1 MOL  0.4050
  10   H6        2.1772    2.3653   -0.0420   ho 1 MOL  0.4050
@<TRIPOS>BOND
    1     1     2  1
    2     2     3  1
    3     1     4  1
    4     1     5  1
    5     1     6  1
    6     2     7  1
    7     2     8  1
    8     3     9  1
    9     4    10  1
@<TRIPOS>SUBSTRUCTURE
1 MOL         1 TEMP              0 ****  ****    0 ROOT

@<TRIPOS>MOLECULE
MOL
   10    9    1    0    0
SMALL
bcc


@<TRIPOS>ATOM
   1   C1        0.6360    1.3470    0.4890   c3 1 MOL  0.1274
   2   C2        0.0250   -0.0490    0.2740   c3 1 MOL  0.1274
   3   O1        1.0580   -1.0030    0.0580   oh 1 MOL -0.6040
   4   O2        1.8468    1.4660   -0.2487   oh 1 MOL -0.6040
   5   H1       -0.0623    2.1156    0.1508   h1 1 MOL  0.0357
   6   H2        0.8482    1.5021    1.5487   h1 1 MOL  0.0357
   7   H3       -0.6350   -0.0380   -0.5960   h1 1 MOL  0.0357
   8   H4       -0.5520   -0.3440    1.1540   h1 1 MOL  0.0357
   9   H5        0.5890   -1.8550   -0.0690   ho 1 MOL  0.4050
  10   H6        2.1662    2.3728   -0.0593   ho 1 MOL  0.4050
@<TRIPOS>BOND
    1     1     2  1
    2     2     3  1
    3     1     4  1
    4     1     5  1
    5     1     6  1
    6     2     7  1
    7     2     8  1
    8     3     9  1
    9     4    10  1
@<TRIPOS>SUBSTRUCTURE
1 MOL         1 TEMP              0 ****  ****    0 ROOT

@<TRIPOS>MOLECULE
MOL
   10    9    1    0    0
SMALL
bcc


@<TRIPOS>ATOM
   1   C1        0.6360    1.3470    0.4890   c3 1 MOL  0.1274
   2   C2        0.0250   -0.0490    0.2740   c3 1 MOL  0.1274
   3   O1        1.0580   -1.0030    0.0580   oh 1 MOL -0.6040
   4   O2        1.8346    1.4741   -0.2669   oh 1 MOL -0.6040
   5   H1       -0.0694    2.1161    0.1672   h1 1 MOL  0.0357
   6   H2        0.8646    1.4953    1.5462   h1 1 MOL  0.0357
   7   H3       -0.6350   -0.0380   -0.5960   h1 1 MOL  0.0357
   8   H4       -0.5520   -0.3440    1.1540   h1 1 MOL  0.0357
   9   H5        0.5890   -1.8550   -0.0690   ho 1 MOL  0.4050
  10   H6        2.1549    2.3804   -0.0763   ho 1 MOL  0.4050
@<TRIPOS>BOND
    1     1     2  1
    2     2     3  1
    3     1     4  1
    4     1     5  1
    5     1     6  1
    6     2     7  1
    7     2     8  1
    8     3     9  1
    9     4    10  1
@<TRIPOS>SUBSTRUCTURE
1 MOL         1 TEMP              0 ****  ****    0 ROOT

@<TRIPOS>MOLECULE
MOL
   10    9    1    0    0
SMALL
bcc


@<TRIPOS>ATOM
   1   C1        0.6360    1.3470    0.4890   c3 1 MOL  0.1274
   2   C2        0.0250   -0.0490    0.2740   c3 1 MOL  0.1274
   3   O1        1.0580   -1.0030    0.0580   oh 1 MOL -0.6040
   4   O2        1.8222    1.4823   -0.2849   oh 1 MOL -0.6040
   5   H1       -0.0762    2.1166    0.1838   h1 1 MOL  0.0357
   6   H2        0.8810    1.4885    1.5435   h1 1 MOL  0.0357
   7   H3       -0.6350   -0.0380   -0.5960   h1 1 MOL  0.0357
   8   H4       -0.5520   -0.3440    1.1540   h1 1 MOL  0.0357
   9   H5        0.5890   -1.8550   -0.0690   ho 1 MOL  0.4050
  10   H6        2.1433    2.3881   -0.0930   ho 1 MOL  0.4050
@<TRIPOS>BOND
    1     1     2  1
    2     2     3  1
    3     1     4  1
    4     1     5  1
    5     1     6  1
    6     2     7  1
    7     2     8  1
    8     3     9  1
    9     4    10  1
@<TRIPOS>SUBSTRUCTURE
1 MOL         1 TEMP              0 ****  ****    0 ROOT

@<TRIPOS>MOLECULE
MOL
   10    9    1    0    0
SMALL
bcc


@<TRIPOS>ATOM
   1   C1        0.6360    1.3470    0.4890   c3 1 MOL  0.1274
   2   C2        0.0250   -0.0490    0.2740   c3 1 MOL  0.1274
   3   O1        1.0580   -1.0030    0.0580   oh 1 MOL -0.6040
   4   O2        1.8095    1.4906   -0.3026   oh 1 MOL -0.6040
   5   H1       -0.0828    2.1169    0.2004   h1 1 MOL  0.0357
   6   H2        0.8973    1.4819    1.5404   h1 1 MOL  0.0357
   7   H3       -0.6350   -0.0380   -0.5960   h1 1 MOL  0.0357
   8   H4       -0.5520   -0.3440    1.1540   h1 1 MOL  0.0357
   9   H5        0.5890   -1.8550   -0.0690   ho 1 MOL  0.4050
  10   H6        2.1314    2.3958   -0.1096   ho 1 MOL  0.4050
@<TRIPOS>BOND
    1     1     2  1
    2     2     3  1
    3     1     4  1
    4     1     5  1
    5     1     6  1
    6     2     7  1
    7     2     8  1
    8     3     9  1
    9     4    10  1
@<TRIPOS>SUBSTRUCTURE
1 MOL         1 TEMP              0 ****  ****    0 ROOT

@<TRIPOS>MOLECULE
MOL
   10    9    1    0    0
SMALL
bcc


@<TRIPOS>ATOM
   1   C1        0.6360    1.3470    0.4890   c3 1 MOL  0.1274
   2   C2        0.0250   -0.0490    0.2740   c3 1 MOL  0.1274
   3   O1        1.0580   -1.0030    0.0580   oh 1 MOL -0.6040
   4   O2        1.7964    1.4990   -0.3201   oh 1 MOL -0.6040
   5   H1       -0.0891    2.1171    0.2172   h1 1 MOL  0.0357
   6   H2        0.9136    1.4752    1.5371   h1 1 MOL  0.0357
   7   H3       -0.6350   -0.0380   -0.5960   h1 1 MOL  0.0357
   8   H4       -0.5520   -0.3440    1.1540   h1 1 MOL  0.0357
   9   H5        0.5890   -1.8550   -0.0690   ho 1 MOL  0.4050
  10   H6        2.1192    2.4037   -0.1258   ho 1 MOL  0.4050
@<TRIPOS>BOND
    1     1     2  1
    2     2     3  1
    3     1     4  1
    4     1     5  1
    5     1     6  1
    6     2     7  1
    7     2     8  1
    8     3     9  1
    9     4    10  1
@<TRIPOS>SUBSTRUCTURE
1 MOL         1 TEMP              0 ****  ****    0 ROOT

@<TRIPOS>MOLECULE
MOL
   10    9    1    0    0
SMALL
bcc


@<TRIPOS>ATOM
   1   C1        0.6360    1.3470    0.4890   c3 1 MOL  0.1274
   2   C2        0.0250   -0.0490    0.2740   c3 1 MOL  0.1274
   3   O1        1.0580   -1.0030    0.0580   oh 1 MOL -0.6040
   4   O2        1.7831    1.5075   -0.3372   oh 1 MOL -0.6040
   5   H1       -0.0951    2.1171    0.2341   h1 1 MOL  0.0357
   6   H2        0.9299    1.4687    1.5334   h1 1 MOL  0.0357
   7   H3       -0.6350   -0.0380   -0.5960   h1 1 MOL  0.0357
   8   H4       -0.5520   -0.3440    1.1540   h1 1 MOL  0.0357
   9   H5        0.5890   -1.8550   -0.0690   ho 1 MOL  0.4050
  10   H6        2.1068    2.4116   -0.1419   ho 1 MOL  0.4050
@<TRIPOS>BOND
    1     1     2  1
    2     2     3  1
    3     1     4  1
    4     1     5  1
    5     1     6  1
    6     2     7  1
    7     2     8  1
    8     3     9  1
    9     4    10  1
@<TRIPOS>SUBSTRUCTURE
1 MOL         1 TEMP              0 ****  ****    0 ROOT

@<TRIPOS>MOLECULE
MOL
   10    9    1    0    0
SMALL
bcc


@<TRIPOS>ATOM
   1   C1        0.6360    1.3470    0.4890   c3 1 MOL  0.1274
   2   C2        0.0250   -0.0490    0.2740   c3 1 MOL  0.1274
   3   O1        1.0580   -1.0030    0.0580   oh 1 MOL -0.6040
   4   O2        1.7695    1.5161   -0.3542   oh 1 MOL -0.6040
   5   H1       -0.1009    2.1170    0.2510   h1 1 MOL  0.0357
   6   H2        0.9461    1.4622    1.5295   h1 1 MOL  0.0357
   7   H3       -0.6350   -0.0380   -0.5960   h1 1 MOL  0.0357
   8   H4       -0.5520   -0.3440    1.1540   h1 1 MOL  0.0357
   9   H5        0.5890   -1.8550   -0.0690   ho 1 MOL  0.4050
  10   H6        2.0940    2.4196   -0.1577   ho 1 MOL  0.4050
@<TRIPOS>BOND
    1     1     2  1
    2     2     3  1
    3     1     4  1
    4     1     5  1
    5     1     6  1
    6     2     7  1
    7     2     8  1
    8     3     9  1
    9     4    10  1
@<TRIPOS>SUBSTRUCTURE
1 MOL         1 TEMP              0 ****  ****    0 ROOT

@<TRIPOS>MOLECULE
MOL
   10    9    1    0    0
SMALL
bcc


@<TRIPOS>ATOM
   1   C1        0.6360    1.3470    0.4890   c3 1 MOL  0.1274
   2   C2        0.0250   -0.0490    0.2740   c3 1 MOL  0.1274
   3   O1        1.0580   -1.0030    0.0580   oh 1 MOL -0.6040
   4   O2        1.7556    1.5247   -0.3708   oh 1 MOL -0.6040
   5   H1       -0.1064    2.1168    0.2681   h1 1 MOL  0.0357
   6   H2        0.9623    1.4558    1.5252   h1 1 MOL  0.0357
   7   H3       -0.6350   -0.0380   -0.5960   h1 1 MOL  0.0357
   8   H4       -0.5520   -0.3440    1.1540   h1 1 MOL  0.0357
   9   H5        0.5890   -1.8550   -0.0690   ho 1 MOL  0.4050
  10   H6        2.0810    2.4276   -0.1732   ho 1 MOL  0.4050
@<TRIPOS>BOND
    1     1     2  1
    2     2     3  1
    3     1     4  1
    4     1     5  1
    5     1     6  1
    6     2     7  1
    7     2     8  1
    8     3     9  1
    9     4    10  1
@<TRIPOS>SUBSTRUCTURE
1 MOL         1 TEMP              0 ****  ****    0 ROOT

@<TRIPOS>MOLECULE
MOL
   10    9    1    0    0
SMALL
bcc


@<TRIPOS>ATOM
   1   C1        0.6360    1.3470    0.4890   c3 1 MOL  0.1274
   2   C2        0.0250   -0.0490    0.2740   c3 1 MOL  0.1274
   3   O1        1.0580   -1.0030    0.0580   oh 1 MOL -0.6040
   4   O2        1.7414    1.5334   -0.3871   oh 1 MOL -0.6040
   5   H1       -0.1117    2.1165    0.2852   h1 1 MOL  0.0357
   6   H2        0.9784    1.4494    1.5206   h1 1 MOL  0.0357
   7   H3       -0.6350   -0.0380   -0.5960   h1 1 MOL  0.0357
   8   H4       -0.5520   -0.3440    1.1540   h1 1 MOL  0.0357
   9   H5        0.5890   -1.8550   -0.0690   ho 1 MOL  0.4050
  10   H6        2.0678    2.4358   -0.1884   ho 1 MOL  0.4050
@<TRIPOS>BOND
    1     1     2  1
    2     2     3  1
    3     1     4  1
    4     1     5  1
    5     1     6  1
    6     2     7  1
    7     2     8  1
    8     3     9  1
    9     4    10  1
@<TRIPOS>SUBSTRUCTURE
1 MOL         1 TEMP              0 ****  ****    0 ROOT

@<TRIPOS>MOLECULE
MOL
   10    9    1    0    0
SMALL
bcc


@<TRIPOS>ATOM
   1   C1        0.6360    1.3470    0.4890   c3 1 MOL  0.1274
   2   C2        0.0250   -0.0490    0.2740   c3 1 MOL  0.1274
   3   O1        1.0580   -1.0030    0.0580   oh 1 MOL -0.6040
   4   O2        1.7269    1.5422   -0.4032   oh 1 MOL -0.6040
   5   H1       -0.1166    2.1160    0.3024   h1 1 MOL  0.0357
   6   H2        0.9944    1.4432    1.5158   h1 1 MOL  0.0357
   7   H3       -0.6350   -0.0380   -0.5960   h1 1 MOL  0.0357
   8   H4       -0.5520   -0.3440    1.1540   h1 1 MOL  0.0357
   9   H5        0.5890   -1.8550   -0.0690   ho 1 MOL  0.4050
  10   H6        2.0543    2.4440   -0.2034   ho 1 MOL  0.4050
@<TRIPOS>BOND
    1     1     2  1
    2     2     3  1
    3     1     4  1
    4     1     5  1
    5     1     6  1
    6     2     7  1
    7     2     8  1
    8     3     9  1
    9     4    10  1
@<TRIPOS>SUBSTRUCTURE
1 MOL         1 TEMP              0 ****  ****    0 ROOT

@<TRIPOS>MOLECULE
MOL
   10    9    1    0    0
SMALL
bcc


@<TRIPOS>ATOM
   1   C1        0.6360    1.3470    0.4890   c3 1 MOL  0.1274
   2   C2        0.0250   -0.0490    0.2740   c3 1 MOL  0.1274
   3   O1        1.0580   -1.0030    0.0580   oh 1 MOL -0.6040
   4   O2        1.7122    1.5511   -0.4190   oh 1 MOL -0.6040
   5   H1       -0.1213    2.1154    0.3197   h1 1 MOL  0.0357
   6   H2        1.0104    1.4369    1.5106   h1 1 MOL  0.0357
   7   H3       -0.6350   -0.0380   -0.5960   h1 1 MOL  0.0357
   8   H4       -0.5520   -0.3440    1.1540   h1 1 MOL  0.0357
   9   H5        0.5890   -1.8550   -0.0690   ho 1 MOL  0.4050
  10   H6        2.0405    2.4523   -0.2181   ho 1 MOL  0.4050
@<TRIPOS>BOND
    1     1     2  1
    2     2     3  1
    3     1     4  1
    4     1     5  1
    5     1     6  1
    6     2     7  1
    7     2     8  1
    8     3     9  1
    9     4    10  1
@<TRIPOS>SUBSTRUCTURE
1 MOL         1 TEMP              0 ****  ****    0 ROOT

@<TRIPOS>MOLECULE
MOL
   10    9    1    0    0
SMALL
bcc


@<TRIPOS>ATOM
   1   C1        0.6360    1.3470    0.4890   c3 1 MOL  0.1274
   2   C2        0.0250   -0.0490    0.2740   c3 1 MOL  0.1274
   3   O1        1.0580   -1.0030    0.0580   oh 1 MOL -0.6040
   4   O2        1.6972    1.5601   -0.4345   oh 1 MOL -0.6040
   5   H1       -0.1257    2.1147    0.3370   h1 1 MOL  0.0357
   6   H2        1.0263    1.4308    1.5052   h1 1 MOL  0.0357
   7   H3       -0.6350   -0.0380   -0.5960   h1 1 MOL  0.0357
   8   H4       -0.5520   -0.3440    1.1540   h1 1 MOL  0.0357
   9   H5        0.5890   -1.8550   -0.0690   ho 1 MOL  0.4050
  10   H6        2.0265    2.4607   -0.2326   ho 1 MOL  0.4050
@<TRIPOS>BOND
    1     1     2  1
    2     2     3  1
    3     1     4  1
    4     1     5  1
    5     1     6  1
    6     2     7  1
    7     2     8  1
    8     3     9  1
    9     4    10  1
@<TRIPOS>SUBSTRUCTURE
1 MOL         1 TEMP              0 ****  ****    0 ROOT

@<TRIPOS>MOLECULE
MOL
   10    9    1    0    0
SMALL
bcc


@<TRIPOS>ATOM
   1   C1        0.6360    1.3470    0.4890   c3 1 MOL  0.1274
   2   C2        0.0250   -0.0490    0.2740   c3 1 MOL  0.1274
   3   O1        1.0580   -1.0030    0.0580   oh 1 MOL -0.6040
   4   O2        1.6819    1.5691   -0.4496   oh 1 MOL -0.6040
   5   H1       -0.1299    2.1138    0.3544   h1 1 MOL  0.0357
   6   H2        1.0422    1.4248    1.4994   h1 1 MOL  0.0357
   7   H3       -0.6350   -0.0380   -0.5960   h1 1 MOL  0.0357
   8   H4       -0.5520   -0.3440    1.1540   h1 1 MOL  0.0357
   9   H5        0.5890   -1.8550   -0.0690   ho 1 MOL  0.4050
  10   H6        2.0122    2.4691   -0.2467   ho 1 MOL  0.4050
@<TRIPOS>BOND
    1     1     2  1
    2     2     3  1
    3     1     4  1
    4     1     5  1
    5     1     6  1
    6     2     7  1
    7     2     8  1
    8     3     9  1
    9     4    10  1
@<TRIPOS>SUBSTRUCTURE
1 MOL         1 TEMP              0 ****  ****    0 ROOT

@<TRIPOS>MOLECULE
MOL
   10    9    1    0    0
SMALL
bcc


@<TRIPOS>ATOM
   1   C1        0.6360    1.3470    0.4890   c3 1 MOL  0.1274
   2   C2        0.0250   -0.0490    0.2740   c3 1 MOL  0.1274
   3   O1        1.0580   -1.0030    0.0580   oh 1 MOL -0.6040
   4   O2        1.6664    1.5782   -0.4645   oh 1 MOL -0.6040
   5   H1       -0.1337    2.1128    0.3719   h1 1 MOL  0.0357
   6   H2        1.0580    1.4188    1.4934   h1 1 MOL  0.0357
   7   H3       -0.6350   -0.0380   -0.5960   h1 1 MOL  0.0357
   8   H4       -0.5520   -0.3440    1.1540   h1 1 MOL  0.0357
   9   H5        0.5890   -1.8550   -0.0690   ho 1 MOL  0.4050
  10   H6        1.9977    2.4776   -0.2606   ho 1 MOL  0.4050
@<TRIPOS>BOND
    1     1     2  1
    2     2     3  1
    3     1     4  1
    4     1     5  1
    5     1     6  1
    6     2     7  1
    7     2     8  1
    8     3     9  1
    9     4    10  1
@<TRIPOS>SUBSTRUCTURE
1 MOL         1 TEMP              0 ****  ****    0 ROOT

@<TRIPOS>MOLECULE
MOL
   10    9    1    0    0
SMALL
bcc


@<TRIPOS>ATOM
   1   C1        0.6360    1.3470    0.4890   c3 1 MOL  0.1274
   2   C2        0.0250   -0.0490    0.2740   c3 1 MOL  0.1274
   3   O1        1.0580   -1.0030    0.0580   oh 1 MOL -0.6040
   4   O2        1.6506    1.5873   -0.4791   oh 1 MOL -0.6040
   5   H1       -0.1373    2.1117    0.3894   h1 1 MOL  0.0357
   6   H2        1.0736    1.4129    1.4871   h1 1 MOL  0.0357
   7   H3       -0.6350   -0.0380   -0.5960   h1 1 MOL  0.0357
   8   H4       -0.5520   -0.3440    1.1540   h1 1 MOL  0.0357
   9   H5        0.5890   -1.8550   -0.0690   ho 1 MOL  0.4050
  10   H6        1.9830    2.4861   -0.2742   ho 1 MOL  0.4050
@<TRIPOS>BOND
    1     1     2  1
    2     2     3  1
    3     1     4  1
    4     1     5  1
    5     1     6  1
    6     2     7  1
    7     2     8  1
    8     3     9  1
    9     4    10  1
@<TRIPOS>SUBSTRUCTURE
1 MOL         1 TEMP              0 ****  ****    0 ROOT

@<TRIPOS>MOLECULE
MOL
   10    9    1    0    0
SMALL
bcc


@<TRIPOS>ATOM
   1   C1        0.6360    1.3470    0.4890   c3 1 MOL  0.1274
   2   C2        0.0250   -0.0490    0.2740   c3 1 MOL  0.1274
   3   O1        1.0580   -1.0030    0.0580   oh 1 MOL -0.6040
   4   O2        1.6346    1.5965   -0.4933   oh 1 MOL -0.6040
   5   H1       -0.1406    2.1104    0.4070   h1 1 MOL  0.0357
   6   H2        1.0892    1.4071    1.4804   h1 1 MOL  0.0357
   7   H3       -0.6350   -0.0380   -0.5960   h1 1 MOL  0.0357
   8   H4       -0.5520   -0.3440    1.1540   h1 1 MOL  0.0357
   9   H5        0.5890   -1.8550   -0.0690   ho 1 MOL  0.4050
  10   H6        1.9680    2.4947   -0.2875   ho 1 MOL  0.4050
@<TRIPOS>BOND
    1     1     2  1
    2     2     3  1
    3     1     4  1
    4     1     5  1
    5     1     6  1
    6     2     7  1
    7     2     8  1
    8     3     9  1
    9     4    10  1
@<TRIPOS>SUBSTRUCTURE
1 MOL         1 TEMP              0 ****  ****    0 ROOT

@<TRIPOS>MOLECULE
MOL
   10    9    1    0    0
SMALL
bcc


@<TRIPOS>ATOM
   1   C1        0.6360    1.3470    0.4890   c3 1 MOL  0.1274
   2   C2        0.0250   -0.0490    0.2740   c3 1 MOL  0.1274
   3   O1        1.0580   -1.0030    0.0580   oh 1 MOL -0.6040
   4   O2        1.6183    1.6058   -0.5072   oh 1 MOL -0.6040
   5   H1       -0.1436    2.1090    0.4246   h1 1 MOL  0.0357
   6   H2        1.1047    1.4014    1.4735   h1 1 MOL  0.0357
   7   H3       -0.6350   -0.0380   -0.5960   h1 1 MOL  0.0357
   8   H4       -0.5520   -0.3440    1.1540   h1 1 MOL  0.0357
   9   H5        0.5890   -1.8550   -0.0690   ho 1 MOL  0.4050
  10   H6        1.9528    2.5034   -0.3005   ho 1 MOL  0.4050
@<TRIPOS>BOND
    1     1     2  1
    2     2     3  1
    3     1     4  1
    4     1     5  1
    5     1     6  1
    6     2     7  1
    7     2     8  1
    8     3     9  1
    9     4    10  1
@<TRIPOS>SUBSTRUCTURE
1 MOL         1 TEMP              0 ****  ****    0 ROOT

@<TRIPOS>MOLECULE
MOL
   10    9    1    0    0
SMALL
bcc


@<TRIPOS>ATOM
   1   C1        0.6360    1.3470    0.4890   c3 1 MOL  0.1274
   2   C2        0.0250   -0.0490    0.2740   c3 1 MOL  0.1274
   3   O1        1.0580   -1.0030    0.0580   oh 1 MOL -0.6040
   4   O2        1.6018    1.6151   -0.5208   oh 1 MOL -0.6040
   5   H1       -0.1464    2.1075    0.4422   h1 1 MOL  0.0357
   6   H2        1.1201    1.3957    1.4664   h1 1 MOL  0.0357
   7   H3       -0.6350   -0.0380   -0.5960   h1 1 MOL  0.0357
   8   H4       -0.5520   -0.3440    1.1540   h1 1 MOL  0.0357
   9   H5        0.5890   -1.8550   -0.0690   ho 1 MOL  0.4050
  10   H6        1.9374    2.5121   -0.3131   ho 1 MOL  0.4050
@<TRIPOS>BOND
    1     1     2  1
    2     2     3  1
    3     1     4  1
    4     1     5  1
    5     1     6  1
    6     2     7  1
    7     2     8  1
    8     3     9  1
    9     4    10  1
@<TRIPOS>SUBSTRUCTURE
1 MOL         1 TEMP              0 ****  ****    0 ROOT

@<TRIPOS>MOLECULE
MOL
   10    9    1    0    0
SMALL
bcc


@<TRIPOS>ATOM
   1   C1        0.6360    1.3470    0.4890   c3 1 MOL  0.1274
   2   C2        0.0250   -0.0490    0.2740   c3 1 MOL  0.1274
   3   O1        1.0580   -1.0030    0.0580   oh 1 MOL -0.6040
   4   O2        1.5850    1.6245   -0.5341   oh 1 MOL -0.6040
   5   H1       -0.1488    2.1059    0.4599   h1 1 MOL  0.0357
   6   H2        1.1355    1.3902    1.4589   h1 1 MOL  0.0357
   7   H3       -0.6350   -0.0380   -0.5960   h1 1 MOL  0.0357
   8   H4       -0.5520   -0.3440    1.1540   h1 1 MOL  0.0357
   9   H5        0.5890   -1.8550   -0.0690   ho 1 MOL  0.4050
  10   H6        1.9217    2.5208   -0.3255   ho 1 MOL  0.4050
@<TRIPOS>BOND
    1     1     2  1
    2     2     3  1
    3     1     4  1
    4     1     5  1
    5     1     6  1
    6     2     7  1
    7     2     8  1
    8     3     9  1
    9     4    10  1
@<TRIPOS>SUBSTRUCTURE
1 MOL         1 TEMP              0 ****  ****    0 ROOT

@<TRIPOS>MOLECULE
MOL
   10    9    1    0    0
SMALL
bcc


@<TRIPOS>ATOM
   1   C1        0.6360    1.3470    0.4890   c3 1 MOL  0.1274
   2   C2        0.0250   -0.0490    0.2740   c3 1 MOL  0.1274
   3   O1        1.0580   -1.0030    0.0580   oh 1 MOL -0.6040
   4   O2        1.5680    1.6339   -0.5470   oh 1 MOL -0.6040
   5   H1       -0.1510    2.1041    0.4776   h1 1 MOL  0.0357
   6   H2        1.1506    1.3847    1.4511   h1 1 MOL  0.0357
   7   H3       -0.6350   -0.0380   -0.5960   h1 1 MOL  0.0357
   8   H4       -0.5520   -0.3440    1.1540   h1 1 MOL  0.0357
   9   H5        0.5890   -1.8550   -0.0690   ho 1 MOL  0.4050
  10   H6        1.9059    2.5296   -0.3376   ho 1 MOL  0.4050
@<TRIPOS>BOND
    1     1     2  1
    2     2     3  1
    3     1     4  1
    4     1     5  1
    5     1     6  1
    6     2     7  1
    7     2     8  1
    8     3     9  1
    9     4    10  1
@<TRIPOS>SUBSTRUCTURE
1 MOL         1 TEMP              0 ****  ****    0 ROOT

@<TRIPOS>MOLECULE
MOL
   10    9    1    0    0
SMALL
bcc


@<TRIPOS>ATOM
   1   C1        0.6360    1.3470    0.4890   c3 1 MOL  0.1274
   2   C2        0.0250   -0.0490    0.2740   c3 1 MOL  0.1274
   3   O1        1.0580   -1.0030    0.0580   oh 1 MOL -0.6040
   4   O2        1.5508    1.6434   -0.5596   oh 1 MOL -0.6040
   5   H1       -0.1529    2.1022    0.4953   h1 1 MOL  0.0357
   6   H2        1.1657    1.3794    1.4431   h1 1 MOL  0.0357
   7   H3       -0.6350   -0.0380   -0.5960   h1 1 MOL  0.0357
   8   H4       -0.5520   -0.3440    1.1540   h1 1 MOL  0.0357
   9   H5        0.5890   -1.8550   -0.0690   ho 1 MOL  0.4050
  10   H6        1.8898    2.5385   -0.3493   ho 1 MOL  0.4050
@<TRIPOS>BOND
    1     1     2  1
    2     2     3  1
    3     1     4  1
    4     1     5  1
    5     1     6  1
    6     2     7  1
    7     2     8  1
    8     3     9  1
    9     4    10  1
@<TRIPOS>SUBSTRUCTURE
1 MOL         1 TEMP              0 ****  ****    0 ROOT

@<TRIPOS>MOLECULE
MOL
   10    9    1    0    0
SMALL
bcc


@<TRIPOS>ATOM
   1   C1        0.6360    1.3470    0.4890   c3 1 MOL  0.1274
   2   C2        0.0250   -0.0490    0.2740   c3 1 MOL  0.1274
   3   O1        1.0580   -1.0030    0.0580   oh 1 MOL -0.6040
   4   O2        1.5334    1.6529   -0.5719   oh 1 MOL -0.6040
   5   H1       -0.1545    2.1001    0.5130   h1 1 MOL  0.0357
   6   H2        1.1807    1.3741    1.4348   h1 1 MOL  0.0357
   7   H3       -0.6350   -0.0380   -0.5960   h1 1 MOL  0.0357
   8   H4       -0.5520   -0.3440    1.1540   h1 1 MOL  0.0357
   9   H5        0.5890   -1.8550   -0.0690   ho 1 MOL  0.4050
  10   H6        1.8735    2.5474   -0.3608   ho 1 MOL  0.4050
@<TRIPOS>BOND
    1     1     2  1
    2     2     3  1
    3     1     4  1
    4     1     5  1
    5     1     6  1
    6     2     7  1
    7     2     8  1
    8     3     9  1
    9     4    10  1
@<TRIPOS>SUBSTRUCTURE
1 MOL         1 TEMP              0 ****  ****    0 ROOT

@<TRIPOS>MOLECULE
MOL
   10    9    1    0    0
SMALL
bcc


@<TRIPOS>ATOM
   1   C1        0.6360    1.3470    0.4890   c3 1 MOL  0.1274
   2   C2        0.0250   -0.0490    0.2740   c3 1 MOL  0.1274
   3   O1        1.0580   -1.0030    0.0580   oh 1 MOL -0.6040
   4   O2        1.5157    1.6625   -0.5838   oh 1 MOL -0.6040
   5   H1       -0.1558    2.0980    0.5308   h1 1 MOL  0.0357
   6   H2        1.1955    1.3689    1.4263   h1 1 MOL  0.0357
   7   H3       -0.6350   -0.0380   -0.5960   h1 1 MOL  0.0357
   8   H4       -0.5520   -0.3440    1.1540   h1 1 MOL  0.0357
   9   H5        0.5890   -1.8550   -0.0690   ho 1 MOL  0.4050
  10   H6        1.8570    2.5563   -0.3719   ho 1 MOL  0.4050
@<TRIPOS>BOND
    1     1     2  1
    2     2     3  1
    3     1     4  1
    4     1     5  1
    5     1     6  1
    6     2     7  1
    7     2     8  1
    8     3     9  1
    9     4    10  1
@<TRIPOS>SUBSTRUCTURE
1 MOL         1 TEMP              0 ****  ****    0 ROOT

@<TRIPOS>MOLECULE
MOL
   10    9    1    0    0
SMALL
bcc


@<TRIPOS>ATOM
   1   C1        0.6360    1.3470    0.4890   c3 1 MOL  0.1274
   2   C2        0.0250   -0.0490    0.2740   c3 1 MOL  0.1274
   3   O1        1.0580   -1.0030    0.0580   oh 1 MOL -0.6040
   4   O2        1.4979    1.6721   -0.5953   oh 1 MOL -0.6040
   5   H1       -0.1568    2.0957    0.5485   h1 1 MOL  0.0357
   6   H2        1.2103    1.3638    1.4174   h1 1 MOL  0.0357
   7   H3       -0.6350   -0.0380   -0.5960   h1 1 MOL  0.0357
   8   H4       -0.5520   -0.3440    1.1540   h1 1 MOL  0.0357
   9   H5        0.5890   -1.8550   -0.0690   ho 1 MOL  0.4050
  10   H6        1.8404    2.5653   -0.3827   ho 1 MOL  0.4050
@<TRIPOS>BOND
    1     1     2  1
    2     2     3  1
    3     1     4  1
    4     1     5  1
    5     1     6  1
    6     2     7  1
    7     2     8  1
    8     3     9  1
    9     4    10  1
@<TRIPOS>SUBSTRUCTURE
1 MOL         1 TEMP              0 ****  ****    0 ROOT

@<TRIPOS>MOLECULE
MOL
   10    9    1    0    0
SMALL
bcc


@<TRIPOS>ATOM
   1   C1        0.6360    1.3470    0.4890   c3 1 MOL  0.1274
   2   C2        0.0250   -0.0490    0.2740   c3 1 MOL  0.1274
   3   O1        1.0580   -1.0030    0.0580   oh 1 MOL -0.6040
   4   O2        1.4798    1.6817   -0.6066   oh 1 MOL -0.6040
   5   H1       -0.1576    2.0933    0.5662   h1 1 MOL  0.0357
   6   H2        1.2249    1.3589    1.4083   h1 1 MOL  0.0357
   7   H3       -0.6350   -0.0380   -0.5960   h1 1 MOL  0.0357
   8   H4       -0.5520   -0.3440    1.1540   h1 1 MOL  0.0357
   9   H5        0.5890   -1.8550   -0.0690   ho 1 MOL  0.4050
  10   H6        1.8235    2.5742   -0.3931   ho 1 MOL  0.4050
@<TRIPOS>BOND
    1     1     2  1
    2     2     3  1
    3     1     4  1
    4     1     5  1
    5     1     6  1
    6     2     7  1
    7     2     8  1
    8     3     9  1
    9     4    10  1
@<TRIPOS>SUBSTRUCTURE
1 MOL         1 TEMP              0 ****  ****    0 ROOT

@<TRIPOS>MOLECULE
MOL
   10    9    1    0    0
SMALL
bcc


@<TRIPOS>ATOM
   1   C1        0.6360    1.3470    0.4890   c3 1 MOL  0.1274
   2   C2        0.0250   -0.0490    0.2740   c3 1 MOL  0.1274
   3   O1        1.0580   -1.0030    0.0580   oh 1 MOL -0.6040
   4   O2        1.4615    1.6914   -0.6174   oh 1 MOL -0.6040
   5   H1       -0.1580    2.0908    0.5840   h1 1 MOL  0.0357
   6   H2        1.2393    1.3540    1.3989   h1 1 MOL  0.0357
   7   H3       -0.6350   -0.0380   -0.5960   h1 1 MOL  0.0357
   8   H4       -0.5520   -0.3440    1.1540   h1 1 MOL  0.0357
   9   H5        0.5890   -1.8550   -0.0690   ho 1 MOL  0.4050
  10   H6        1.8064    2.5833   -0.4033   ho 1 MOL  0.4050
@<TRIPOS>BOND
    1     1     2  1
    2     2     3  1
    3     1     4  1
    4     1     5  1
    5     1     6  1
    6     2     7  1
    7     2     8  1
    8     3     9  1
    9     4    10  1
@<TRIPOS>SUBSTRUCTURE
1 MOL         1 TEMP              0 ****  ****    0 ROOT

@<TRIPOS>MOLECULE
MOL
   10    9    1    0    0
SMALL
bcc


@<TRIPOS>ATOM
   1   C1        0.6360    1.3470    0.4890   c3 1 MOL  0.1274
   2   C2        0.0250   -0.0490    0.2740   c3 1 MOL  0.1274
   3   O1        1.0580   -1.0030    0.0580   oh 1 MOL -0.6040
   4   O2        1.4431    1.7011   -0.6279   oh 1 MOL -0.6040
   5   H1       -0.1582    2.0881    0.6017   h1 1 MOL  0.0357
   6   H2        1.2536    1.3492    1.3893   h1 1 MOL  0.0357
   7   H3       -0.6350   -0.0380   -0.5960   h1 1 MOL  0.0357
   8   H4       -0.5520   -0.3440    1.1540   h1 1 MOL  0.0357
   9   H5        0.5890   -1.8550   -0.0690   ho 1 MOL  0.4050
  10   H6        1.7892    2.5923   -0.4131   ho 1 MOL  0.4050
@<TRIPOS>BOND
    1     1     2  1
    2     2     3  1
    3     1     4  1
    4     1     5  1
    5     1     6  1
    6     2     7  1
    7     2     8  1
    8     3     9  1
    9     4    10  1
@<TRIPOS>SUBSTRUCTURE
1 MOL         1 TEMP              0 ****  ****    0 ROOT

@<TRIPOS>MOLECULE
MOL
   10    9    1    0    0
SMALL
bcc


@<TRIPOS>ATOM
   1   C1        0.6360    1.3470    0.4890   c3 1 MOL  0.1274
   2   C2        0.0250   -0.0490    0.2740   c3 1 MOL  0.1274
   3   O1        1.0580   -1.0030    0.0580   oh 1 MOL -0.6040
   4   O2        1.4244    1.7108   -0.6381   oh 1 MOL -0.6040
   5   H1       -0.1581    2.0853    0.6194   h1 1 MOL  0.0357
   6   H2        1.2678    1.3445    1.3794   h1 1 MOL  0.0357
   7   H3       -0.6350   -0.0380   -0.5960   h1 1 MOL  0.0357
   8   H4       -0.5520   -0.3440    1.1540   h1 1 MOL  0.0357
   9   H5        0.5890   -1.8550   -0.0690   ho 1 MOL  0.4050
  10   H6        1.7718    2.6014   -0.4225   ho 1 MOL  0.4050
@<TRIPOS>BOND
    1     1     2  1
    2     2     3  1
    3     1     4  1
    4     1     5  1
    5     1     6  1
    6     2     7  1
    7     2     8  1
    8     3     9  1
    9     4    10  1
@<TRIPOS>SUBSTRUCTURE
1 MOL         1 TEMP              0 ****  ****    0 ROOT

@<TRIPOS>MOLECULE
MOL
   10    9    1    0    0
SMALL
bcc


@<TRIPOS>ATOM
   1   C1        0.6360    1.3470    0.4890   c3 1 MOL  0.1274
   2   C2        0.0250   -0.0490    0.2740   c3 1 MOL  0.1274
   3   O1        1.0580   -1.0030    0.0580   oh 1 MOL -0.6040
   4   O2        1.4056    1.7205   -0.6479   oh 1 MOL -0.6040
   5   H1       -0.1577    2.0824    0.6371   h1 1 MOL  0.0357
   6   H2        1.2818    1.3399    1.3693   h1 1 MOL  0.0357
   7   H3       -0.6350   -0.0380   -0.5960   h1 1 MOL  0.0357
   8   H4       -0.5520   -0.3440    1.1540   h1 1 MOL  0.0357
   9   H5        0.5890   -1.8550   -0.0690   ho 1 MOL  0.4050
  10   H6        1.7542    2.6105   -0.4316   ho 1 MOL  0.4050
@<TRIPOS>BOND
    1     1     2  1
    2     2     3  1
    3     1     4  1
    4     1     5  1
    5     1     6  1
    6     2     7  1
    7     2     8  1
    8     3     9  1
    9     4    10  1
@<TRIPOS>SUBSTRUCTURE
1 MOL         1 TEMP              0 ****  ****    0 ROOT

@<TRIPOS>MOLECULE
MOL
   10    9    1    0    0
SMALL
bcc


@<TRIPOS>ATOM
   1   C1        0.6360    1.3470    0.4890   c3 1 MOL  0.1274
   2   C2        0.0250   -0.0490    0.2740   c3 1 MOL  0.1274
   3   O1        1.0580   -1.0030    0.0580   oh 1 MOL -0.6040
   4   O2        1.3866    1.7303   -0.6573   oh 1 MOL -0.6040
   5   H1       -0.1570    2.0794    0.6547   h1 1 MOL  0.0357
   6   H2        1.2957    1.3355    1.3589   h1 1 MOL  0.0357
   7   H3       -0.6350   -0.0380   -0.5960   h1 1 MOL  0.0357
   8   H4       -0.5520   -0.3440    1.1540   h1 1 MOL  0.0357
   9   H5        0.5890   -1.8550   -0.0690   ho 1 MOL  0.4050
  10   H6        1.7365    2.6196   -0.4404   ho 1 MOL  0.4050
@<TRIPOS>BOND
    1     1     2  1
    2     2     3  1
    3     1     4  1
    4     1     5  1
    5     1     6  1
    6     2     7  1
    7     2     8  1
    8     3     9  1
    9     4    10  1
@<TRIPOS>SUBSTRUCTURE
1 MOL         1 TEMP              0 ****  ****    0 ROOT

@<TRIPOS>MOLECULE
MOL
   10    9    1    0    0
SMALL
bcc


@<TRIPOS>ATOM
   1   C1        0.6360    1.3470    0.4890   c3 1 MOL  0.1274
   2   C2        0.0250   -0.0490    0.2740   c3 1 MOL  0.1274
   3   O1        1.0580   -1.0030    0.0580   oh 1 MOL -0.6040
   4   O2        1.3675    1.7401   -0.6663   oh 1 MOL -0.6040
   5   H1       -0.1560    2.0763    0.6723   h1 1 MOL  0.0357
   6   H2        1.3094    1.3311    1.3482   h1 1 MOL  0.0357
   7   H3       -0.6350   -0.0380   -0.5960   h1 1 MOL  0.0357
   8   H4       -0.5520   -0.3440    1.1540   h1 1 MOL  0.0357
   9   H5        0.5890   -1.8550   -0.0690   ho 1 MOL  0.4050
  10   H6        1.7186    2.6287   -0.4488   ho 1 MOL  0.4050
@<TRIPOS>BOND
    1     1     2  1
    2     2     3  1
    3     1     4  1
    4     1     5  1
    5     1     6  1
    6     2     7  1
    7     2     8  1
    8     3     9  1
    9     4    10  1
@<TRIPOS>SUBSTRUCTURE
1 MOL         1 TEMP              0 ****  ****    0 ROOT

@<TRIPOS>MOLECULE
MOL
   10    9    1    0    0
SMALL
bcc


@<TRIPOS>ATOM
   1   C1        0.6360    1.3470    0.4890   c3 1 MOL  0.1274
   2   C2        0.0250   -0.0490    0.2740   c3 1 MOL  0.1274
   3   O1        1.0580   -1.0030    0.0580   oh 1 MOL -0.6040
   4   O2        1.3481    1.7499   -0.6750   oh 1 MOL -0.6040
   5   H1       -0.1547    2.0730    0.6899   h1 1 MOL  0.0357
   6   H2        1.3230    1.3268    1.3373   h1 1 MOL  0.0357
   7   H3       -0.6350   -0.0380   -0.5960   h1 1 MOL  0.0357
   8   H4       -0.5520   -0.3440    1.1540   h1 1 MOL  0.0357
   9   H5        0.5890   -1.8550   -0.0690   ho 1 MOL  0.4050
  10   H6        1.7006    2.6379   -0.4569   ho 1 MOL  0.4050
@<TRIPOS>BOND
    1     1     2  1
    2     2     3  1
    3     1     4  1
    4     1     5  1
    5     1     6  1
    6     2     7  1
    7     2     8  1
    8     3     9  1
    9     4    10  1
@<TRIPOS>SUBSTRUCTURE
1 MOL         1 TEMP              0 ****  ****    0 ROOT

@<TRIPOS>MOLECULE
MOL
   10    9    1    0    0
SMALL
bcc


@<TRIPOS>ATOM
   1   C1        0.6360    1.3470    0.4890   c3 1 MOL  0.1274
   2   C2        0.0250   -0.0490    0.2740   c3 1 MOL  0.1274
   3   O1        1.0580   -1.0030    0.0580   oh 1 MOL -0.6040
   4   O2        1.3286    1.7597   -0.6833   oh 1 MOL -0.6040
   5   H1       -0.1532    2.0696    0.7074   h1 1 MOL  0.0357
   6   H2        1.3364    1.3227    1.3262   h1 1 MOL  0.0357
   7   H3       -0.6350   -0.0380   -0.5960   h1 1 MOL  0.0357
   8   H4       -0.5520   -0.3440    1.1540   h1 1 MOL  0.0357
   9   H5        0.5890   -1.8550   -0.0690   ho 1 MOL  0.4050
  10   H6        1.6824    2.6470   -0.4647   ho 1 MOL  0.4050
@<TRIPOS>BOND
    1     1     2  1
    2     2     3  1
    3     1     4  1
    4     1     5  1
    5     1     6  1
    6     2     7  1
    7     2     8  1
    8     3     9  1
    9     4    10  1
@<TRIPOS>SUBSTRUCTURE
1 MOL         1 TEMP              0 ****  ****    0 ROOT

@<TRIPOS>MOLECULE
MOL
   10    9    1    0    0
SMALL
bcc


@<TRIPOS>ATOM
   1   C1        0.6360    1.3470    0.4890   c3 1 MOL  0.1274
   2   C2        0.0250   -0.0490    0.2740   c3 1 MOL  0.1274
   3   O1        1.0580   -1.0030    0.0580   oh 1 MOL -0.6040
   4   O2        1.3090    1.7695   -0.6912   oh 1 MOL -0.6040
   5   H1       -0.1513    2.0661    0.7249   h1 1 MOL  0.0357
   6   H2        1.3496    1.3186    1.3148   h1 1 MOL  0.0357
   7   H3       -0.6350   -0.0380   -0.5960   h1 1 MOL  0.0357
   8   H4       -0.5520   -0.3440    1.1540   h1 1 MOL  0.0357
   9   H5        0.5890   -1.8550   -0.0690   ho 1 MOL  0.4050
  10   H6        1.6640    2.6562   -0.4720   ho 1 MOL  0.4050
@<TRIPOS>BOND
    1     1     2  1
    2     2     3  1
    3     1     4  1
    4     1     5  1
    5     1     6  1
    6     2     7  1
    7     2     8  1
    8     3     9  1
    9     4    10  1
@<TRIPOS>SUBSTRUCTURE
1 MOL         1 TEMP              0 ****  ****    0 ROOT

@<TRIPOS>MOLECULE
MOL
   10    9    1    0    0
SMALL
bcc


@<TRIPOS>ATOM
   1   C1        0.6360    1.3470    0.4890   c3 1 MOL  0.1274
   2   C2        0.0250   -0.0490    0.2740   c3 1 MOL  0.1274
   3   O1        1.0580   -1.0030    0.0580   oh 1 MOL -0.6040
   4   O2        1.2892    1.7793   -0.6987   oh 1 MOL -0.6040
   5   H1       -0.1492    2.0625    0.7423   h1 1 MOL  0.0357
   6   H2        1.3627    1.3147    1.3032   h1 1 MOL  0.0357
   7   H3       -0.6350   -0.0380   -0.5960   h1 1 MOL  0.0357
   8   H4       -0.5520   -0.3440    1.1540   h1 1 MOL  0.0357
   9   H5        0.5890   -1.8550   -0.0690   ho 1 MOL  0.4050
  10   H6        1.6455    2.6654   -0.4791   ho 1 MOL  0.4050
@<TRIPOS>BOND
    1     1     2  1
    2     2     3  1
    3     1     4  1
    4     1     5  1
    5     1     6  1
    6     2     7  1
    7     2     8  1
    8     3     9  1
    9     4    10  1
@<TRIPOS>SUBSTRUCTURE
1 MOL         1 TEMP              0 ****  ****    0 ROOT

@<TRIPOS>MOLECULE
MOL
   10    9    1    0    0
SMALL
bcc


@<TRIPOS>ATOM
   1   C1        0.6360    1.3470    0.4890   c3 1 MOL  0.1274
   2   C2        0.0250   -0.0490    0.2740   c3 1 MOL  0.1274
   3   O1        1.0580   -1.0030    0.0580   oh 1 MOL -0.6040
   4   O2        1.2693    1.7892   -0.7059   oh 1 MOL -0.6040
   5   H1       -0.1468    2.0588    0.7597   h1 1 MOL  0.0357
   6   H2        1.3756    1.3109    1.2913   h1 1 MOL  0.0357
   7   H3       -0.6350   -0.0380   -0.5960   h1 1 MOL  0.0357
   8   H4       -0.5520   -0.3440    1.1540   h1 1 MOL  0.0357
   9   H5        0.5890   -1.8550   -0.0690   ho 1 MOL  0.4050
  10   H6        1.6269    2.6745   -0.4857   ho 1 MOL  0.4050
@<TRIPOS>BOND
    1     1     2  1
    2     2     3  1
    3     1     4  1
    4     1     5  1
    5     1     6  1
    6     2     7  1
    7     2     8  1
    8     3     9  1
    9     4    10  1
@<TRIPOS>SUBSTRUCTURE
1 MOL         1 TEMP              0 ****  ****    0 ROOT

@<TRIPOS>MOLECULE
MOL
   10    9    1    0    0
SMALL
bcc


@<TRIPOS>ATOM
   1   C1        0.6360    1.3470    0.4890   c3 1 MOL  0.1274
   2   C2        0.0250   -0.0490    0.2740   c3 1 MOL  0.1274
   3   O1        1.0580   -1.0030    0.0580   oh 1 MOL -0.6040
   4   O2        1.2492    1.7990   -0.7127   oh 1 MOL -0.6040
   5   H1       -0.1441    2.0549    0.7770   h1 1 MOL  0.0357
   6   H2        1.3883    1.3072    1.2793   h1 1 MOL  0.0357
   7   H3       -0.6350   -0.0380   -0.5960   h1 1 MOL  0.0357
   8   H4       -0.5520   -0.3440    1.1540   h1 1 MOL  0.0357
   9   H5        0.5890   -1.8550   -0.0690   ho 1 MOL  0.4050
  10   H6        1.6082    2.6837   -0.4920   ho 1 MOL  0.4050
@<TRIPOS>BOND
    1     1     2  1
    2     2     3  1
    3     1     4  1
    4     1     5  1
    5     1     6  1
    6     2     7  1
    7     2     8  1
    8     3     9  1
    9     4    10  1
@<TRIPOS>SUBSTRUCTURE
1 MOL         1 TEMP              0 ****  ****    0 ROOT

@<TRIPOS>MOLECULE
MOL
   10    9    1    0    0
SMALL
bcc


@<TRIPOS>ATOM
   1   C1        0.6360    1.3470    0.4890   c3 1 MOL  0.1274
   2   C2        0.0250   -0.0490    0.2740   c3 1 MOL  0.1274
   3   O1        1.0580   -1.0030    0.0580   oh 1 MOL -0.6040
   4   O2        1.2290    1.8088   -0.7190   oh 1 MOL -0.6040
   5   H1       -0.1411    2.0510    0.7942   h1 1 MOL  0.0357
   6   H2        1.4008    1.3036    1.2670   h1 1 MOL  0.0357
   7   H3       -0.6350   -0.0380   -0.5960   h1 1 MOL  0.0357
   8   H4       -0.5520   -0.3440    1.1540   h1 1 MOL  0.0357
   9   H5        0.5890   -1.8550   -0.0690   ho 1 MOL  0.4050
  10   H6        1.5894    2.6929   -0.4980   ho 1 MOL  0.4050
@<TRIPOS>BOND
    1     1     2  1
    2     2     3  1
    3     1     4  1
    4     1     5  1
    5     1     6  1
    6     2     7  1
    7     2     8  1
    8     3     9  1
    9     4    10  1
@<TRIPOS>SUBSTRUCTURE
1 MOL         1 TEMP              0 ****  ****    0 ROOT

@<TRIPOS>MOLECULE
MOL
   10    9    1    0    0
SMALL
bcc


@<TRIPOS>ATOM
   1   C1        0.6360    1.3470    0.4890   c3 1 MOL  0.1274
   2   C2        0.0250   -0.0490    0.2740   c3 1 MOL  0.1274
   3   O1        1.0580   -1.0030    0.0580   oh 1 MOL -0.6040
   4   O2        1.2087    1.8186   -0.7250   oh 1 MOL -0.6040
   5   H1       -0.1379    2.0469    0.8113   h1 1 MOL  0.0357
   6   H2        1.4131    1.3002    1.2545   h1 1 MOL  0.0357
   7   H3       -0.6350   -0.0380   -0.5960   h1 1 MOL  0.0357
   8   H4       -0.5520   -0.3440    1.1540   h1 1 MOL  0.0357
   9   H5        0.5890   -1.8550   -0.0690   ho 1 MOL  0.4050
  10   H6        1.5704    2.7020   -0.5036   ho 1 MOL  0.4050
@<TRIPOS>BOND
    1     1     2  1
    2     2     3  1
    3     1     4  1
    4     1     5  1
    5     1     6  1
    6     2     7  1
    7     2     8  1
    8     3     9  1
    9     4    10  1
@<TRIPOS>SUBSTRUCTURE
1 MOL         1 TEMP              0 ****  ****    0 ROOT

@<TRIPOS>MOLECULE
MOL
   10    9    1    0    0
SMALL
bcc


@<TRIPOS>ATOM
   1   C1        0.6360    1.3470    0.4890   c3 1 MOL  0.1274
   2   C2        0.0250   -0.0490    0.2740   c3 1 MOL  0.1274
   3   O1        1.0580   -1.0030    0.0580   oh 1 MOL -0.6040
   4   O2        1.1883    1.8284   -0.7306   oh 1 MOL -0.6040
   5   H1       -0.1343    2.0428    0.8284   h1 1 MOL  0.0357
   6   H2        1.4252    1.2968    1.2417   h1 1 MOL  0.0357
   7   H3       -0.6350   -0.0380   -0.5960   h1 1 MOL  0.0357
   8   H4       -0.5520   -0.3440    1.1540   h1 1 MOL  0.0357
   9   H5        0.5890   -1.8550   -0.0690   ho 1 MOL  0.4050
  10   H6        1.5513    2.7112   -0.5088   ho 1 MOL  0.4050
@<TRIPOS>BOND
    1     1     2  1
    2     2     3  1
    3     1     4  1
    4     1     5  1
    5     1     6  1
    6     2     7  1
    7     2     8  1
    8     3     9  1
    9     4    10  1
@<TRIPOS>SUBSTRUCTURE
1 MOL         1 TEMP              0 ****  ****    0 ROOT

@<TRIPOS>MOLECULE
MOL
   10    9    1    0    0
SMALL
bcc


@<TRIPOS>ATOM
   1   C1        0.6360    1.3470    0.4890   c3 1 MOL  0.1274
   2   C2        0.0250   -0.0490    0.2740   c3 1 MOL  0.1274
   3   O1        1.0580   -1.0030    0.0580   oh 1 MOL -0.6040
   4   O2        1.1678    1.8382   -0.7358   oh 1 MOL -0.6040
   5   H1       -0.1305    2.0385    0.8454   h1 1 MOL  0.0357
   6   H2        1.4372    1.2936    1.2288   h1 1 MOL  0.0357
   7   H3       -0.6350   -0.0380   -0.5960   h1 1 MOL  0.0357
   8   H4       -0.5520   -0.3440    1.1540   h1 1 MOL  0.0357
   9   H5        0.5890   -1.8550   -0.0690   ho 1 MOL  0.4050
  10   H6        1.5322    2.7203   -0.5137   ho 1 MOL  0.4050
@<TRIPOS>BOND
    1     1     2  1
    2     2     3  1
    3     1     4  1
    4     1     5  1
    5     1     6  1
    6     2     7  1
    7     2     8  1
    8     3     9  1
    9     4    10  1
@<TRIPOS>SUBSTRUCTURE
1 MOL         1 TEMP              0 ****  ****    0 ROOT

@<TRIPOS>MOLECULE
MOL
   10    9    1    0    0
SMALL
bcc


@<TRIPOS>ATOM
   1   C1        0.6360    1.3470    0.4890   c3 1 MOL  0.1274
   2   C2        0.0250   -0.0490    0.2740   c3 1 MOL  0.1274
   3   O1        1.0580   -1.0030    0.0580   oh 1 MOL -0.6040
   4   O2        1.1471    1.8480   -0.7407   oh 1 MOL -0.6040
   5   H1       -0.1264    2.0341    0.8622   h1 1 MOL  0.0357
   6   H2        1.4489    1.2905    1.2156   h1 1 MOL  0.0357
   7   H3       -0.6350   -0.0380   -0.5960   h1 1 MOL  0.0357
   8   H4       -0.5520   -0.3440    1.1540   h1 1 MOL  0.0357
   9   H5        0.5890   -1.8550   -0.0690   ho 1 MOL  0.4050
  10   H6        1.5129    2.7295   -0.5181   ho 1 MOL  0.4050
@<TRIPOS>BOND
    1     1     2  1
    2     2     3  1
    3     1     4  1
    4     1     5  1
    5     1     6  1
    6     2     7  1
    7     2     8  1
    8     3     9  1
    9     4    10  1
@<TRIPOS>SUBSTRUCTURE
1 MOL         1 TEMP              0 ****  ****    0 ROOT

@<TRIPOS>MOLECULE
MOL
   10    9    1    0    0
SMALL
bcc


@<TRIPOS>ATOM
   1   C1        0.6360    1.3470    0.4890   c3 1 MOL  0.1274
   2   C2        0.0250   -0.0490    0.2740   c3 1 MOL  0.1274
   3   O1        1.0580   -1.0030    0.0580   oh 1 MOL -0.6040
   4   O2        1.1264    1.8577   -0.7451   oh 1 MOL -0.6040
   5   H1       -0.1220    2.0296    0.8790   h1 1 MOL  0.0357
   6   H2        1.4605    1.2875    1.2022   h1 1 MOL  0.0357
   7   H3       -0.6350   -0.0380   -0.5960   h1 1 MOL  0.0357
   8   H4       -0.5520   -0.3440    1.1540   h1 1 MOL  0.0357
   9   H5        0.5890   -1.8550   -0.0690   ho 1 MOL  0.4050
  10   H6        1.4935    2.7386   -0.5223   ho 1 MOL  0.4050
@<TRIPOS>BOND
    1     1     2  1
    2     2     3  1
    3     1     4  1
    4     1     5  1
    5     1     6  1
    6     2     7  1
    7     2     8  1
    8     3     9  1
    9     4    10  1
@<TRIPOS>SUBSTRUCTURE
1 MOL         1 TEMP              0 ****  ****    0 ROOT

@<TRIPOS>MOLECULE
MOL
   10    9    1    0    0
SMALL
bcc


@<TRIPOS>ATOM
   1   C1        0.6360    1.3470    0.4890   c3 1 MOL  0.1274
   2   C2        0.0250   -0.0490    0.2740   c3 1 MOL  0.1274
   3   O1        1.0580   -1.0030    0.0580   oh 1 MOL -0.6040
   4   O2        1.1056    1.8675   -0.7491   oh 1 MOL -0.6040
   5   H1       -0.1174    2.0250    0.8957   h1 1 MOL  0.0357
   6   H2        1.4718    1.2846    1.1887   h1 1 MOL  0.0357
   7   H3       -0.6350   -0.0380   -0.5960   h1 1 MOL  0.0357
   8   H4       -0.5520   -0.3440    1.1540   h1 1 MOL  0.0357
   9   H5        0.5890   -1.8550   -0.0690   ho 1 MOL  0.4050
  10   H6        1.4741    2.7476   -0.5260   ho 1 MOL  0.4050
@<TRIPOS>BOND
    1     1     2  1
    2     2     3  1
    3     1     4  1
    4     1     5  1
    5     1     6  1
    6     2     7  1
    7     2     8  1
    8     3     9  1
    9     4    10  1
@<TRIPOS>SUBSTRUCTURE
1 MOL         1 TEMP              0 ****  ****    0 ROOT

@<TRIPOS>MOLECULE
MOL
   10    9    1    0    0
SMALL
bcc


@<TRIPOS>ATOM
   1   C1        0.6360    1.3470    0.4890   c3 1 MOL  0.1274
   2   C2        0.0250   -0.0490    0.2740   c3 1 MOL  0.1274
   3   O1        1.0580   -1.0030    0.0580   oh 1 MOL -0.6040
   4   O2        1.0846    1.8772   -0.7527   oh 1 MOL -0.6040
   5   H1       -0.1125    2.0203    0.9123   h1 1 MOL  0.0357
   6   H2        1.4829    1.2818    1.1749   h1 1 MOL  0.0357
   7   H3       -0.6350   -0.0380   -0.5960   h1 1 MOL  0.0357
   8   H4       -0.5520   -0.3440    1.1540   h1 1 MOL  0.0357
   9   H5        0.5890   -1.8550   -0.0690   ho 1 MOL  0.4050
  10   H6        1.4546    2.7567   -0.5294   ho 1 MOL  0.4050
@<TRIPOS>BOND
    1     1     2  1
    2     2     3  1
    3     1     4  1
    4     1     5  1
    5     1     6  1
    6     2     7  1
    7     2     8  1
    8     3     9  1
    9     4    10  1
@<TRIPOS>SUBSTRUCTURE
1 MOL         1 TEMP              0 ****  ****    0 ROOT

@<TRIPOS>MOLECULE
MOL
   10    9    1    0    0
SMALL
bcc


@<TRIPOS>ATOM
   1   C1        0.6360    1.3470    0.4890   c3 1 MOL  0.1274
   2   C2        0.0250   -0.0490    0.2740   c3 1 MOL  0.1274
   3   O1        1.0580   -1.0030    0.0580   oh 1 MOL -0.6040
   4   O2        1.0637    1.8869   -0.7560   oh 1 MOL -0.6040
   5   H1       -0.1073    2.0155    0.9287   h1 1 MOL  0.0357
   6   H2        1.4938    1.2792    1.1610   h1 1 MOL  0.0357
   7   H3       -0.6350   -0.0380   -0.5960   h1 1 MOL  0.0357
   8   H4       -0.5520   -0.3440    1.1540   h1 1 MOL  0.0357
   9   H5        0.5890   -1.8550   -0.0690   ho 1 MOL  0.4050
  10   H6        1.4350    2.7658   -0.5324   ho 1 MOL  0.4050
@<TRIPOS>BOND
    1     1     2  1
    2     2     3  1
    3     1     4  1
    4     1     5  1
    5     1     6  1
    6     2     7  1
    7     2     8  1
    8     3     9  1
    9     4    10  1
@<TRIPOS>SUBSTRUCTURE
1 MOL         1 TEMP              0 ****  ****    0 ROOT

@<TRIPOS>MOLECULE
MOL
   10    9    1    0    0
SMALL
bcc


@<TRIPOS>ATOM
   1   C1        0.6360    1.3470    0.4890   c3 1 MOL  0.1274
   2   C2        0.0250   -0.0490    0.2740   c3 1 MOL  0.1274
   3   O1        1.0580   -1.0030    0.0580   oh 1 MOL -0.6040
   4   O2        1.0426    1.8965   -0.7588   oh 1 MOL -0.6040
   5   H1       -0.1018    2.0105    0.9451   h1 1 MOL  0.0357
   6   H2        1.5045    1.2767    1.1468   h1 1 MOL  0.0357
   7   H3       -0.6350   -0.0380   -0.5960   h1 1 MOL  0.0357
   8   H4       -0.5520   -0.3440    1.1540   h1 1 MOL  0.0357
   9   H5        0.5890   -1.8550   -0.0690   ho 1 MOL  0.4050
  10   H6        1.4153    2.7748   -0.5350   ho 1 MOL  0.4050
@<TRIPOS>BOND
    1     1     2  1
    2     2     3  1
    3     1     4  1
    4     1     5  1
    5     1     6  1
    6     2     7  1
    7     2     8  1
    8     3     9  1
    9     4    10  1
@<TRIPOS>SUBSTRUCTURE
1 MOL         1 TEMP              0 ****  ****    0 ROOT

@<TRIPOS>MOLECULE
MOL
   10    9    1    0    0
SMALL
bcc


@<TRIPOS>ATOM
   1   C1        0.6360    1.3470    0.4890   c3 1 MOL  0.1274
   2   C2        0.0250   -0.0490    0.2740   c3 1 MOL  0.1274
   3   O1        1.0580   -1.0030    0.0580   oh 1 MOL -0.6040
   4   O2        1.0215    1.9061   -0.7612   oh 1 MOL -0.6040
   5   H1       -0.0961    2.0055    0.9613   h1 1 MOL  0.0357
   6   H2        1.5150    1.2743    1.1325   h1 1 MOL  0.0357
   7   H3       -0.6350   -0.0380   -0.5960   h1 1 MOL  0.0357
   8   H4       -0.5520   -0.3440    1.1540   h1 1 MOL  0.0357
   9   H5        0.5890   -1.8550   -0.0690   ho 1 MOL  0.4050
  10   H6        1.3956    2.7837   -0.5373   ho 1 MOL  0.4050
@<TRIPOS>BOND
    1     1     2  1
    2     2     3  1
    3     1     4  1
    4     1     5  1
    5     1     6  1
    6     2     7  1
    7     2     8  1
    8     3     9  1
    9     4    10  1
@<TRIPOS>SUBSTRUCTURE
1 MOL         1 TEMP              0 ****  ****    0 ROOT

@<TRIPOS>MOLECULE
MOL
   10    9    1    0    0
SMALL
bcc


@<TRIPOS>ATOM
   1   C1        0.6360    1.3470    0.4890   c3 1 MOL  0.1274
   2   C2        0.0250   -0.0490    0.2740   c3 1 MOL  0.1274
   3   O1        1.0580   -1.0030    0.0580   oh 1 MOL -0.6040
   4   O2        1.0003    1.9157   -0.7633   oh 1 MOL -0.6040
   5   H1       -0.0901    2.0004    0.9774   h1 1 MOL  0.0357
   6   H2        1.5253    1.2721    1.1180   h1 1 MOL  0.0357
   7   H3       -0.6350   -0.0380   -0.5960   h1 1 MOL  0.0357
   8   H4       -0.5520   -0.3440    1.1540   h1 1 MOL  0.0357
   9   H5        0.5890   -1.8550   -0.0690   ho 1 MOL  0.4050
  10   H6        1.3758    2.7927   -0.5392   ho 1 MOL  0.4050
@<TRIPOS>BOND
    1     1     2  1
    2     2     3  1
    3     1     4  1
    4     1     5  1
    5     1     6  1
    6     2     7  1
    7     2     8  1
    8     3     9  1
    9     4    10  1
@<TRIPOS>SUBSTRUCTURE
1 MOL         1 TEMP              0 ****  ****    0 ROOT

@<TRIPOS>MOLECULE
MOL
   10    9    1    0    0
SMALL
bcc


@<TRIPOS>ATOM
   1   C1        0.6360    1.3470    0.4890   c3 1 MOL  0.1274
   2   C2        0.0250   -0.0490    0.2740   c3 1 MOL  0.1274
   3   O1        1.0580   -1.0030    0.0580   oh 1 MOL -0.6040
   4   O2        0.9790    1.9253   -0.7649   oh 1 MOL -0.6040
   5   H1       -0.0838    1.9952    0.9933   h1 1 MOL  0.0357
   6   H2        1.5353    1.2700    1.1033   h1 1 MOL  0.0357
   7   H3       -0.6350   -0.0380   -0.5960   h1 1 MOL  0.0357
   8   H4       -0.5520   -0.3440    1.1540   h1 1 MOL  0.0357
   9   H5        0.5890   -1.8550   -0.0690   ho 1 MOL  0.4050
  10   H6        1.3560    2.8016   -0.5407   ho 1 MOL  0.4050
@<TRIPOS>BOND
    1     1     2  1
    2     2     3  1
    3     1     4  1
    4     1     5  1
    5     1     6  1
    6     2     7  1
    7     2     8  1
    8     3     9  1
    9     4    10  1
@<TRIPOS>SUBSTRUCTURE
1 MOL         1 TEMP              0 ****  ****    0 ROOT

@<TRIPOS>MOLECULE
MOL
   10    9    1    0    0
SMALL
bcc


@<TRIPOS>ATOM
   1   C1        0.6360    1.3470    0.4890   c3 1 MOL  0.1274
   2   C2        0.0250   -0.0490    0.2740   c3 1 MOL  0.1274
   3   O1        1.0580   -1.0030    0.0580   oh 1 MOL -0.6040
   4   O2        0.9578    1.9348   -0.7661   oh 1 MOL -0.6040
   5   H1       -0.0773    1.9899    1.0091   h1 1 MOL  0.0357
   6   H2        1.5451    1.2680    1.0884   h1 1 MOL  0.0357
   7   H3       -0.6350   -0.0380   -0.5960   h1 1 MOL  0.0357
   8   H4       -0.5520   -0.3440    1.1540   h1 1 MOL  0.0357
   9   H5        0.5890   -1.8550   -0.0690   ho 1 MOL  0.4050
  10   H6        1.3361    2.8105   -0.5418   ho 1 MOL  0.4050
@<TRIPOS>BOND
    1     1     2  1
    2     2     3  1
    3     1     4  1
    4     1     5  1
    5     1     6  1
    6     2     7  1
    7     2     8  1
    8     3     9  1
    9     4    10  1
@<TRIPOS>SUBSTRUCTURE
1 MOL         1 TEMP              0 ****  ****    0 ROOT

@<TRIPOS>MOLECULE
MOL
   10    9    1    0    0
SMALL
bcc


@<TRIPOS>ATOM
   1   C1        0.6360    1.3470    0.4890   c3 1 MOL  0.1274
   2   C2        0.0250   -0.0490    0.2740   c3 1 MOL  0.1274
   3   O1        1.0580   -1.0030    0.0580   oh 1 MOL -0.6040
   4   O2        0.9364    1.9442   -0.7669   oh 1 MOL -0.6040
   5   H1       -0.0705    1.9845    1.0248   h1 1 MOL  0.0357
   6   H2        1.5547    1.2661    1.0734   h1 1 MOL  0.0357
   7   H3       -0.6350   -0.0380   -0.5960   h1 1 MOL  0.0357
   8   H4       -0.5520   -0.3440    1.1540   h1 1 MOL  0.0357
   9   H5        0.5890   -1.8550   -0.0690   ho 1 MOL  0.4050
  10   H6        1.3162    2.8193   -0.5426   ho 1 MOL  0.4050
@<TRIPOS>BOND
    1     1     2  1
    2     2     3  1
    3     1     4  1
    4     1     5  1
    5     1     6  1
    6     2     7  1
    7     2     8  1
    8     3     9  1
    9     4    10  1
@<TRIPOS>SUBSTRUCTURE
1 MOL         1 TEMP              0 ****  ****    0 ROOT

@<TRIPOS>MOLECULE
MOL
   10    9    1    0    0
SMALL
bcc


@<TRIPOS>ATOM
   1   C1        0.6360    1.3470    0.4890   c3 1 MOL  0.1274
   2   C2        0.0250   -0.0490    0.2740   c3 1 MOL  0.1274
   3   O1        1.0580   -1.0030    0.0580   oh 1 MOL -0.6040
   4   O2        0.9151    1.9536   -0.7673   oh 1 MOL -0.6040
   5   H1       -0.0634    1.9791    1.0403   h1 1 MOL  0.0357
   6   H2        1.5640    1.2643    1.0582   h1 1 MOL  0.0357
   7   H3       -0.6350   -0.0380   -0.5960   h1 1 MOL  0.0357
   8   H4       -0.5520   -0.3440    1.1540   h1 1 MOL  0.0357
   9   H5        0.5890   -1.8550   -0.0690   ho 1 MOL  0.4050
  10   H6        1.2963    2.8281   -0.5429   ho 1 MOL  0.4050
@<TRIPOS>BOND
    1     1     2  1
    2     2     3  1
    3     1     4  1
    4     1     5  1
    5     1     6  1
    6     2     7  1
    7     2     8  1
    8     3     9  1
    9     4    10  1
@<TRIPOS>SUBSTRUCTURE
1 MOL         1 TEMP              0 ****  ****    0 ROOT

@<TRIPOS>MOLECULE
MOL
   10    9    1    0    0
SMALL
bcc


@<TRIPOS>ATOM
   1   C1        0.6360    1.3470    0.4890   c3 1 MOL  0.1274
   2   C2        0.0250   -0.0490    0.2740   c3 1 MOL  0.1274
   3   O1        1.0580   -1.0030    0.0580   oh 1 MOL -0.6040
   4   O2        0.8937    1.9630   -0.7674   oh 1 MOL -0.6040
   5   H1       -0.0561    1.9735    1.0557   h1 1 MOL  0.0357
   6   H2        1.5731    1.2627    1.0429   h1 1 MOL  0.0357
   7   H3       -0.6350   -0.0380   -0.5960   h1 1 MOL  0.0357
   8   H4       -0.5520   -0.3440    1.1540   h1 1 MOL  0.0357
   9   H5        0.5890   -1.8550   -0.0690   ho 1 MOL  0.4050
  10   H6        1.2763    2.8368   -0.5429   ho 1 MOL  0.4050
@<TRIPOS>BOND
    1     1     2  1
    2     2     3  1
    3     1     4  1
    4     1     5  1
    5     1     6  1
    6     2     7  1
    7     2     8  1
    8     3     9  1
    9     4    10  1
@<TRIPOS>SUBSTRUCTURE
1 MOL         1 TEMP              0 ****  ****    0 ROOT

@<TRIPOS>MOLECULE
MOL
   10    9    1    0    0
SMALL
bcc


@<TRIPOS>ATOM
   1   C1        0.6360    1.3470    0.4890   c3 1 MOL  0.1274
   2   C2        0.0250   -0.0490    0.2740   c3 1 MOL  0.1274
   3   O1        1.0580   -1.0030    0.0580   oh 1 MOL -0.6040
   4   O2        0.8723    1.9723   -0.7670   oh 1 MOL -0.6040
   5   H1       -0.0485    1.9678    1.0709   h1 1 MOL  0.0357
   6   H2        1.5819    1.2612    1.0274   h1 1 MOL  0.0357
   7   H3       -0.6350   -0.0380   -0.5960   h1 1 MOL  0.0357
   8   H4       -0.5520   -0.3440    1.1540   h1 1 MOL  0.0357
   9   H5        0.5890   -1.8550   -0.0690   ho 1 MOL  0.4050
  10   H6        1.2563    2.8455   -0.5426   ho 1 MOL  0.4050
@<TRIPOS>BOND
    1     1     2  1
    2     2     3  1
    3     1     4  1
    4     1     5  1
    5     1     6  1
    6     2     7  1
    7     2     8  1
    8     3     9  1
    9     4    10  1
@<TRIPOS>SUBSTRUCTURE
1 MOL         1 TEMP              0 ****  ****    0 ROOT

@<TRIPOS>MOLECULE
MOL
   10    9    1    0    0
SMALL
bcc


@<TRIPOS>ATOM
   1   C1        0.6360    1.3470    0.4890   c3 1 MOL  0.1274
   2   C2        0.0250   -0.0490    0.2740   c3 1 MOL  0.1274
   3   O1        1.0580   -1.0030    0.0580   oh 1 MOL -0.6040
   4   O2        0.8509    1.9816   -0.7662   oh 1 MOL -0.6040
   5   H1       -0.0407    1.9621    1.0860   h1 1 MOL  0.0357
   6   H2        1.5905    1.2599    1.0117   h1 1 MOL  0.0357
   7   H3       -0.6350   -0.0380   -0.5960   h1 1 MOL  0.0357
   8   H4       -0.5520   -0.3440    1.1540   h1 1 MOL  0.0357
   9   H5        0.5890   -1.8550   -0.0690   ho 1 MOL  0.4050
  10   H6        1.2363    2.8541   -0.5418   ho 1 MOL  0.4050
@<TRIPOS>BOND
    1     1     2  1
    2     2     3  1
    3     1     4  1
    4     1     5  1
    5     1     6  1
    6     2     7  1
    7     2     8  1
    8     3     9  1
    9     4    10  1
@<TRIPOS>SUBSTRUCTURE
1 MOL         1 TEMP              0 ****  ****    0 ROOT

@<TRIPOS>MOLECULE
MOL
   10    9    1    0    0
SMALL
bcc


@<TRIPOS>ATOM
   1   C1        0.6360    1.3470    0.4890   c3 1 MOL  0.1274
   2   C2        0.0250   -0.0490    0.2740   c3 1 MOL  0.1274
   3   O1        1.0580   -1.0030    0.0580   oh 1 MOL -0.6040
   4   O2        0.8295    1.9908   -0.7650   oh 1 MOL -0.6040
   5   H1       -0.0326    1.9563    1.1009   h1 1 MOL  0.0357
   6   H2        1.5989    1.2586    0.9960   h1 1 MOL  0.0357
   7   H3       -0.6350   -0.0380   -0.5960   h1 1 MOL  0.0357
   8   H4       -0.5520   -0.3440    1.1540   h1 1 MOL  0.0357
   9   H5        0.5890   -1.8550   -0.0690   ho 1 MOL  0.4050
  10   H6        1.2163    2.8627   -0.5407   ho 1 MOL  0.4050
@<TRIPOS>BOND
    1     1     2  1
    2     2     3  1
    3     1     4  1
    4     1     5  1
    5     1     6  1
    6     2     7  1
    7     2     8  1
    8     3     9  1
    9     4    10  1
@<TRIPOS>SUBSTRUCTURE
1 MOL         1 TEMP              0 ****  ****    0 ROOT

@<TRIPOS>MOLECULE
MOL
   10    9    1    0    0
SMALL
bcc


@<TRIPOS>ATOM
   1   C1        0.6360    1.3470    0.4890   c3 1 MOL  0.1274
   2   C2        0.0250   -0.0490    0.2740   c3 1 MOL  0.1274
   3   O1        1.0580   -1.0030    0.0580   oh 1 MOL -0.6040
   4   O2        0.8080    1.9999   -0.7634   oh 1 MOL -0.6040
   5   H1       -0.0243    1.9504    1.1156   h1 1 MOL  0.0357
   6   H2        1.6070    1.2575    0.9800   h1 1 MOL  0.0357
   7   H3       -0.6350   -0.0380   -0.5960   h1 1 MOL  0.0357
   8   H4       -0.5520   -0.3440    1.1540   h1 1 MOL  0.0357
   9   H5        0.5890   -1.8550   -0.0690   ho 1 MOL  0.4050
  10   H6        1.1963    2.8712   -0.5392   ho 1 MOL  0.4050
@<TRIPOS>BOND
    1     1     2  1
    2     2     3  1
    3     1     4  1
    4     1     5  1
    5     1     6  1
    6     2     7  1
    7     2     8  1
    8     3     9  1
    9     4    10  1
@<TRIPOS>SUBSTRUCTURE
1 MOL         1 TEMP              0 ****  ****    0 ROOT

@<TRIPOS>MOLECULE
MOL
   10    9    1    0    0
SMALL
bcc


@<TRIPOS>ATOM
   1   C1        0.6360    1.3470    0.4890   c3 1 MOL  0.1274
   2   C2        0.0250   -0.0490    0.2740   c3 1 MOL  0.1274
   3   O1        1.0580   -1.0030    0.0580   oh 1 MOL -0.6040
   4   O2        0.7866    2.0090   -0.7614   oh 1 MOL -0.6040
   5   H1       -0.0157    1.9444    1.1302   h1 1 MOL  0.0357
   6   H2        1.6149    1.2566    0.9640   h1 1 MOL  0.0357
   7   H3       -0.6350   -0.0380   -0.5960   h1 1 MOL  0.0357
   8   H4       -0.5520   -0.3440    1.1540   h1 1 MOL  0.0357
   9   H5        0.5890   -1.8550   -0.0690   ho 1 MOL  0.4050
  10   H6        1.1763    2.8797   -0.5373   ho 1 MOL  0.4050
@<TRIPOS>BOND
    1     1     2  1
    2     2     3  1
    3     1     4  1
    4     1     5  1
    5     1     6  1
    6     2     7  1
    7     2     8  1
    8     3     9  1
    9     4    10  1
@<TRIPOS>SUBSTRUCTURE
1 MOL         1 TEMP              0 ****  ****    0 ROOT

@<TRIPOS>MOLECULE
MOL
   10    9    1    0    0
SMALL
bcc


@<TRIPOS>ATOM
   1   C1        0.6360    1.3470    0.4890   c3 1 MOL  0.1274
   2   C2        0.0250   -0.0490    0.2740   c3 1 MOL  0.1274
   3   O1        1.0580   -1.0030    0.0580   oh 1 MOL -0.6040
   4   O2        0.7652    2.0179   -0.7590   oh 1 MOL -0.6040
   5   H1       -0.0069    1.9383    1.1445   h1 1 MOL  0.0357
   6   H2        1.6225    1.2557    0.9478   h1 1 MOL  0.0357
   7   H3       -0.6350   -0.0380   -0.5960   h1 1 MOL  0.0357
   8   H4       -0.5520   -0.3440    1.1540   h1 1 MOL  0.0357
   9   H5        0.5890   -1.8550   -0.0690   ho 1 MOL  0.4050
  10   H6        1.1564    2.8881   -0.5351   ho 1 MOL  0.4050
@<TRIPOS>BOND
    1     1     2  1
    2     2     3  1
    3     1     4  1
    4     1     5  1
    5     1     6  1
    6     2     7  1
    7     2     8  1
    8     3     9  1
    9     4    10  1
@<TRIPOS>SUBSTRUCTURE
1 MOL         1 TEMP              0 ****  ****    0 ROOT

@<TRIPOS>MOLECULE
MOL
   10    9    1    0    0
SMALL
bcc


@<TRIPOS>ATOM
   1   C1        0.6360    1.3470    0.4890   c3 1 MOL  0.1274
   2   C2        0.0250   -0.0490    0.2740   c3 1 MOL  0.1274
   3   O1        1.0580   -1.0030    0.0580   oh 1 MOL -0.6040
   4   O2        0.7438    2.0269   -0.7562   oh 1 MOL -0.6040
   5   H1        0.0022    1.9321    1.1587   h1 1 MOL  0.0357
   6   H2        1.6299    1.2550    0.9315   h1 1 MOL  0.0357
   7   H3       -0.6350   -0.0380   -0.5960   h1 1 MOL  0.0357
   8   H4       -0.5520   -0.3440    1.1540   h1 1 MOL  0.0357
   9   H5        0.5890   -1.8550   -0.0690   ho 1 MOL  0.4050
  10   H6        1.1364    2.8964   -0.5324   ho 1 MOL  0.4050
@<TRIPOS>BOND
    1     1     2  1
    2     2     3  1
    3     1     4  1
    4     1     5  1
    5     1     6  1
    6     2     7  1
    7     2     8  1
    8     3     9  1
    9     4    10  1
@<TRIPOS>SUBSTRUCTURE
1 MOL         1 TEMP              0 ****  ****    0 ROOT

@<TRIPOS>MOLECULE
MOL
   10    9    1    0    0
SMALL
bcc


@<TRIPOS>ATOM
   1   C1        0.6360    1.3470    0.4890   c3 1 MOL  0.1274
   2   C2        0.0250   -0.0490    0.2740   c3 1 MOL  0.1274
   3   O1        1.0580   -1.0030    0.0580   oh 1 MOL -0.6040
   4   O2        0.7225    2.0357   -0.7530   oh 1 MOL -0.6040
   5   H1        0.0115    1.9259    1.1727   h1 1 MOL  0.0357
   6   H2        1.6370    1.2545    0.9150   h1 1 MOL  0.0357
   7   H3       -0.6350   -0.0380   -0.5960   h1 1 MOL  0.0357
   8   H4       -0.5520   -0.3440    1.1540   h1 1 MOL  0.0357
   9   H5        0.5890   -1.8550   -0.0690   ho 1 MOL  0.4050
  10   H6        1.1165    2.9047   -0.5294   ho 1 MOL  0.4050
@<TRIPOS>BOND
    1     1     2  1
    2     2     3  1
    3     1     4  1
    4     1     5  1
    5     1     6  1
    6     2     7  1
    7     2     8  1
    8     3     9  1
    9     4    10  1
@<TRIPOS>SUBSTRUCTURE
1 MOL         1 TEMP              0 ****  ****    0 ROOT

@<TRIPOS>MOLECULE
MOL
   10    9    1    0    0
SMALL
bcc


@<TRIPOS>ATOM
   1   C1        0.6360    1.3470    0.4890   c3 1 MOL  0.1274
   2   C2        0.0250   -0.0490    0.2740   c3 1 MOL  0.1274
   3   O1        1.0580   -1.0030    0.0580   oh 1 MOL -0.6040
   4   O2        0.7012    2.0445   -0.7494   oh 1 MOL -0.6040
   5   H1        0.0210    1.9196    1.1865   h1 1 MOL  0.0357
   6   H2        1.6438    1.2540    0.8985   h1 1 MOL  0.0357
   7   H3       -0.6350   -0.0380   -0.5960   h1 1 MOL  0.0357
   8   H4       -0.5520   -0.3440    1.1540   h1 1 MOL  0.0357
   9   H5        0.5890   -1.8550   -0.0690   ho 1 MOL  0.4050
  10   H6        1.0966    2.9129   -0.5261   ho 1 MOL  0.4050
@<TRIPOS>BOND
    1     1     2  1
    2     2     3  1
    3     1     4  1
    4     1     5  1
    5     1     6  1
    6     2     7  1
    7     2     8  1
    8     3     9  1
    9     4    10  1
@<TRIPOS>SUBSTRUCTURE
1 MOL         1 TEMP              0 ****  ****    0 ROOT

@<TRIPOS>MOLECULE
MOL
   10    9    1    0    0
SMALL
bcc


@<TRIPOS>ATOM
   1   C1        0.6360    1.3470    0.4890   c3 1 MOL  0.1274
   2   C2        0.0250   -0.0490    0.2740   c3 1 MOL  0.1274
   3   O1        1.0580   -1.0030    0.0580   oh 1 MOL -0.6040
   4   O2        0.6799    2.0532   -0.7454   oh 1 MOL -0.6040
   5   H1        0.0307    1.9133    1.2001   h1 1 MOL  0.0357
   6   H2        1.6504    1.2537    0.8818   h1 1 MOL  0.0357
   7   H3       -0.6350   -0.0380   -0.5960   h1 1 MOL  0.0357
   8   H4       -0.5520   -0.3440    1.1540   h1 1 MOL  0.0357
   9   H5        0.5890   -1.8550   -0.0690   ho 1 MOL  0.4050
  10   H6        1.0767    2.9210   -0.5223   ho 1 MOL  0.4050
@<TRIPOS>BOND
    1     1     2  1
    2     2     3  1
    3     1     4  1
    4     1     5  1
    5     1     6  1
    6     2     7  1
    7     2     8  1
    8     3     9  1
    9     4    10  1
@<TRIPOS>SUBSTRUCTURE
1 MOL         1 TEMP              0 ****  ****    0 ROOT

@<TRIPOS>MOLECULE
MOL
   10    9    1    0    0
SMALL
bcc


@<TRIPOS>ATOM
   1   C1        0.6360    1.3470    0.4890   c3 1 MOL  0.1274
   2   C2        0.0250   -0.0490    0.2740   c3 1 MOL  0.1274
   3   O1        1.0580   -1.0030    0.0580   oh 1 MOL -0.6040
   4   O2        0.6586    2.0618   -0.7410   oh 1 MOL -0.6040
   5   H1        0.0407    1.9068    1.2135   h1 1 MOL  0.0357
   6   H2        1.6567    1.2535    0.8651   h1 1 MOL  0.0357
   7   H3       -0.6350   -0.0380   -0.5960   h1 1 MOL  0.0357
   8   H4       -0.5520   -0.3440    1.1540   h1 1 MOL  0.0357
   9   H5        0.5890   -1.8550   -0.0690   ho 1 MOL  0.4050
  10   H6        1.0569    2.9290   -0.5182   ho 1 MOL  0.4050
@<TRIPOS>BOND
    1     1     2  1
    2     2     3  1
    3     1     4  1
    4     1     5  1
    5     1     6  1
    6     2     7  1
    7     2     8  1
    8     3     9  1
    9     4    10  1
@<TRIPOS>SUBSTRUCTURE
1 MOL         1 TEMP              0 ****  ****    0 ROOT

@<TRIPOS>MOLECULE
MOL
   10    9    1    0    0
SMALL
bcc


@<TRIPOS>ATOM
   1   C1        0.6360    1.3470    0.4890   c3 1 MOL  0.1274
   2   C2        0.0250   -0.0490    0.2740   c3 1 MOL  0.1274
   3   O1        1.0580   -1.0030    0.0580   oh 1 MOL -0.6040
   4   O2        0.6374    2.0704   -0.7362   oh 1 MOL -0.6040
   5   H1        0.0510    1.9003    1.2267   h1 1 MOL  0.0357
   6   H2        1.6627    1.2535    0.8482   h1 1 MOL  0.0357
   7   H3       -0.6350   -0.0380   -0.5960   h1 1 MOL  0.0357
   8   H4       -0.5520   -0.3440    1.1540   h1 1 MOL  0.0357
   9   H5        0.5890   -1.8550   -0.0690   ho 1 MOL  0.4050
  10   H6        1.0371    2.9370   -0.5137   ho 1 MOL  0.4050
@<TRIPOS>BOND
    1     1     2  1
    2     2     3  1
    3     1     4  1
    4     1     5  1
    5     1     6  1
    6     2     7  1
    7     2     8  1
    8     3     9  1
    9     4    10  1
@<TRIPOS>SUBSTRUCTURE
1 MOL         1 TEMP              0 ****  ****    0 ROOT

@<TRIPOS>MOLECULE
MOL
   10    9    1    0    0
SMALL
bcc


@<TRIPOS>ATOM
   1   C1        0.6360    1.3470    0.4890   c3 1 MOL  0.1274
   2   C2        0.0250   -0.0490    0.2740   c3 1 MOL  0.1274
   3   O1        1.0580   -1.0030    0.0580   oh 1 MOL -0.6040
   4   O2        0.6163    2.0788   -0.7310   oh 1 MOL -0.6040
   5   H1        0.0614    1.8937    1.2397   h1 1 MOL  0.0357
   6   H2        1.6685    1.2535    0.8313   h1 1 MOL  0.0357
   7   H3       -0.6350   -0.0380   -0.5960   h1 1 MOL  0.0357
   8   H4       -0.5520   -0.3440    1.1540   h1 1 MOL  0.0357
   9   H5        0.5890   -1.8550   -0.0690   ho 1 MOL  0.4050
  10   H6        1.0174    2.9449   -0.5089   ho 1 MOL  0.4050
@<TRIPOS>BOND
    1     1     2  1
    2     2     3  1
    3     1     4  1
    4     1     5  1
    5     1     6  1
    6     2     7  1
    7     2     8  1
    8     3     9  1
    9     4    10  1
@<TRIPOS>SUBSTRUCTURE
1 MOL         1 TEMP              0 ****  ****    0 ROOT

@<TRIPOS>MOLECULE
MOL
   10    9    1    0    0
SMALL
bcc


@<TRIPOS>ATOM
   1   C1        0.6360    1.3470    0.4890   c3 1 MOL  0.1274
   2   C2        0.0250   -0.0490    0.2740   c3 1 MOL  0.1274
   3   O1        1.0580   -1.0030    0.0580   oh 1 MOL -0.6040
   4   O2        0.5952    2.0872   -0.7254   oh 1 MOL -0.6040
   5   H1        0.0721    1.8871    1.2525   h1 1 MOL  0.0357
   6   H2        1.6740    1.2538    0.8142   h1 1 MOL  0.0357
   7   H3       -0.6350   -0.0380   -0.5960   h1 1 MOL  0.0357
   8   H4       -0.5520   -0.3440    1.1540   h1 1 MOL  0.0357
   9   H5        0.5890   -1.8550   -0.0690   ho 1 MOL  0.4050
  10   H6        0.9977    2.9527   -0.5036   ho 1 MOL  0.4050
@<TRIPOS>BOND
    1     1     2  1
    2     2     3  1
    3     1     4  1
    4     1     5  1
    5     1     6  1
    6     2     7  1
    7     2     8  1
    8     3     9  1
    9     4    10  1
@<TRIPOS>SUBSTRUCTURE
1 MOL         1 TEMP              0 ****  ****    0 ROOT

@<TRIPOS>MOLECULE
MOL
   10    9    1    0    0
SMALL
bcc


@<TRIPOS>ATOM
   1   C1        0.6360    1.3470    0.4890   c3 1 MOL  0.1274
   2   C2        0.0250   -0.0490    0.2740   c3 1 MOL  0.1274
   3   O1        1.0580   -1.0030    0.0580   oh 1 MOL -0.6040
   4   O2        0.5743    2.0954   -0.7194   oh 1 MOL -0.6040
   5   H1        0.0829    1.8804    1.2651   h1 1 MOL  0.0357
   6   H2        1.6793    1.2541    0.7971   h1 1 MOL  0.0357
   7   H3       -0.6350   -0.0380   -0.5960   h1 1 MOL  0.0357
   8   H4       -0.5520   -0.3440    1.1540   h1 1 MOL  0.0357
   9   H5        0.5890   -1.8550   -0.0690   ho 1 MOL  0.4050
  10   H6        0.9781    2.9604   -0.4981   ho 1 MOL  0.4050
@<TRIPOS>BOND
    1     1     2  1
    2     2     3  1
    3     1     4  1
    4     1     5  1
    5     1     6  1
    6     2     7  1
    7     2     8  1
    8     3     9  1
    9     4    10  1
@<TRIPOS>SUBSTRUCTURE
1 MOL         1 TEMP              0 ****  ****    0 ROOT

@<TRIPOS>MOLECULE
MOL
   10    9    1    0    0
SMALL
bcc


@<TRIPOS>ATOM
   1   C1        0.6360    1.3470    0.4890   c3 1 MOL  0.1274
   2   C2        0.0250   -0.0490    0.2740   c3 1 MOL  0.1274
   3   O1        1.0580   -1.0030    0.0580   oh 1 MOL -0.6040
   4   O2        0.5533    2.1036   -0.7131   oh 1 MOL -0.6040
   5   H1        0.0940    1.8737    1.2774   h1 1 MOL  0.0357
   6   H2        1.6843    1.2546    0.7799   h1 1 MOL  0.0357
   7   H3       -0.6350   -0.0380   -0.5960   h1 1 MOL  0.0357
   8   H4       -0.5520   -0.3440    1.1540   h1 1 MOL  0.0357
   9   H5        0.5890   -1.8550   -0.0690   ho 1 MOL  0.4050
  10   H6        0.9586    2.9680   -0.4921   ho 1 MOL  0.4050
@<TRIPOS>BOND
    1     1     2  1
    2     2     3  1
    3     1     4  1
    4     1     5  1
    5     1     6  1
    6     2     7  1
    7     2     8  1
    8     3     9  1
    9     4    10  1
@<TRIPOS>SUBSTRUCTURE
1 MOL         1 TEMP              0 ****  ****    0 ROOT

@<TRIPOS>MOLECULE
MOL
   10    9    1    0    0
SMALL
bcc


@<TRIPOS>ATOM
   1   C1        0.6360    1.3470    0.4890   c3 1 MOL  0.1274
   2   C2        0.0250   -0.0490    0.2740   c3 1 MOL  0.1274
   3   O1        1.0580   -1.0030    0.0580   oh 1 MOL -0.6040
   4   O2        0.5325    2.1117   -0.7063   oh 1 MOL -0.6040
   5   H1        0.1053    1.8668    1.2895   h1 1 MOL  0.0357
   6   H2        1.6889    1.2552    0.7627   h1 1 MOL  0.0357
   7   H3       -0.6350   -0.0380   -0.5960   h1 1 MOL  0.0357
   8   H4       -0.5520   -0.3440    1.1540   h1 1 MOL  0.0357
   9   H5        0.5890   -1.8550   -0.0690   ho 1 MOL  0.4050
  10   H6        0.9391    2.9756   -0.4858   ho 1 MOL  0.4050
@<TRIPOS>BOND
    1     1     2  1
    2     2     3  1
    3     1     4  1
    4     1     5  1
    5     1     6  1
    6     2     7  1
    7     2     8  1
    8     3     9  1
    9     4    10  1
@<TRIPOS>SUBSTRUCTURE
1 MOL         1 TEMP              0 ****  ****    0 ROOT

@<TRIPOS>MOLECULE
MOL
   10    9    1    0    0
SMALL
bcc


@<TRIPOS>ATOM
   1   C1        0.6360    1.3470    0.4890   c3 1 MOL  0.1274
   2   C2        0.0250   -0.0490    0.2740   c3 1 MOL  0.1274
   3   O1        1.0580   -1.0030    0.0580   oh 1 MOL -0.6040
   4   O2        0.5118    2.1197   -0.6992   oh 1 MOL -0.6040
   5   H1        0.1168    1.8600    1.3014   h1 1 MOL  0.0357
   6   H2        1.6934    1.2559    0.7453   h1 1 MOL  0.0357
   7   H3       -0.6350   -0.0380   -0.5960   h1 1 MOL  0.0357
   8   H4       -0.5520   -0.3440    1.1540   h1 1 MOL  0.0357
   9   H5        0.5890   -1.8550   -0.0690   ho 1 MOL  0.4050
  10   H6        0.9198    2.9830   -0.4791   ho 1 MOL  0.4050
@<TRIPOS>BOND
    1     1     2  1
    2     2     3  1
    3     1     4  1
    4     1     5  1
    5     1     6  1
    6     2     7  1
    7     2     8  1
    8     3     9  1
    9     4    10  1
@<TRIPOS>SUBSTRUCTURE
1 MOL         1 TEMP              0 ****  ****    0 ROOT

@<TRIPOS>MOLECULE
MOL
   10    9    1    0    0
SMALL
bcc


@<TRIPOS>ATOM
   1   C1        0.6360    1.3470    0.4890   c3 1 MOL  0.1274
   2   C2        0.0250   -0.0490    0.2740   c3 1 MOL  0.1274
   3   O1        1.0580   -1.0030    0.0580   oh 1 MOL -0.6040
   4   O2        0.4911    2.1276   -0.6917   oh 1 MOL -0.6040
   5   H1        0.1286    1.8530    1.3131   h1 1 MOL  0.0357
   6   H2        1.6975    1.2568    0.7279   h1 1 MOL  0.0357
   7   H3       -0.6350   -0.0380   -0.5960   h1 1 MOL  0.0357
   8   H4       -0.5520   -0.3440    1.1540   h1 1 MOL  0.0357
   9   H5        0.5890   -1.8550   -0.0690   ho 1 MOL  0.4050
  10   H6        0.9005    2.9904   -0.4721   ho 1 MOL  0.4050
@<TRIPOS>BOND
    1     1     2  1
    2     2     3  1
    3     1     4  1
    4     1     5  1
    5     1     6  1
    6     2     7  1
    7     2     8  1
    8     3     9  1
    9     4    10  1
@<TRIPOS>SUBSTRUCTURE
1 MOL         1 TEMP              0 ****  ****    0 ROOT

@<TRIPOS>MOLECULE
MOL
   10    9    1    0    0
SMALL
bcc


@<TRIPOS>ATOM
   1   C1        0.6360    1.3470    0.4890   c3 1 MOL  0.1274
   2   C2        0.0250   -0.0490    0.2740   c3 1 MOL  0.1274
   3   O1        1.0580   -1.0030    0.0580   oh 1 MOL -0.6040
   4   O2        0.4706    2.1353   -0.6838   oh 1 MOL -0.6040
   5   H1        0.1405    1.8461    1.3245   h1 1 MOL  0.0357
   6   H2        1.7014    1.2578    0.7105   h1 1 MOL  0.0357
   7   H3       -0.6350   -0.0380   -0.5960   h1 1 MOL  0.0357
   8   H4       -0.5520   -0.3440    1.1540   h1 1 MOL  0.0357
   9   H5        0.5890   -1.8550   -0.0690   ho 1 MOL  0.4050
  10   H6        0.8813    2.9976   -0.4647   ho 1 MOL  0.4050
@<TRIPOS>BOND
    1     1     2  1
    2     2     3  1
    3     1     4  1
    4     1     5  1
    5     1     6  1
    6     2     7  1
    7     2     8  1
    8     3     9  1
    9     4    10  1
@<TRIPOS>SUBSTRUCTURE
1 MOL         1 TEMP              0 ****  ****    0 ROOT

@<TRIPOS>MOLECULE
MOL
   10    9    1    0    0
SMALL
bcc


@<TRIPOS>ATOM
   1   C1        0.6360    1.3470    0.4890   c3 1 MOL  0.1274
   2   C2        0.0250   -0.0490    0.2740   c3 1 MOL  0.1274
   3   O1        1.0580   -1.0030    0.0580   oh 1 MOL -0.6040
   4   O2        0.4501    2.1430   -0.6755   oh 1 MOL -0.6040
   5   H1        0.1526    1.8391    1.3357   h1 1 MOL  0.0357
   6   H2        1.7050    1.2589    0.6929   h1 1 MOL  0.0357
   7   H3       -0.6350   -0.0380   -0.5960   h1 1 MOL  0.0357
   8   H4       -0.5520   -0.3440    1.1540   h1 1 MOL  0.0357
   9   H5        0.5890   -1.8550   -0.0690   ho 1 MOL  0.4050
  10   H6        0.8623    3.0048   -0.4570   ho 1 MOL  0.4050
@<TRIPOS>BOND
    1     1     2  1
    2     2     3  1
    3     1     4  1
    4     1     5  1
    5     1     6  1
    6     2     7  1
    7     2     8  1
    8     3     9  1
    9     4    10  1
@<TRIPOS>SUBSTRUCTURE
1 MOL         1 TEMP              0 ****  ****    0 ROOT

@<TRIPOS>MOLECULE
MOL
   10    9    1    0    0
SMALL
bcc


@<TRIPOS>ATOM
   1   C1        0.6360    1.3470    0.4890   c3 1 MOL  0.1274
   2   C2        0.0250   -0.0490    0.2740   c3 1 MOL  0.1274
   3   O1        1.0580   -1.0030    0.0580   oh 1 MOL -0.6040
   4   O2        0.4298    2.1506   -0.6669   oh 1 MOL -0.6040
   5   H1        0.1649    1.8320    1.3466   h1 1 MOL  0.0357
   6   H2        1.7083    1.2602    0.6754   h1 1 MOL  0.0357
   7   H3       -0.6350   -0.0380   -0.5960   h1 1 MOL  0.0357
   8   H4       -0.5520   -0.3440    1.1540   h1 1 MOL  0.0357
   9   H5        0.5890   -1.8550   -0.0690   ho 1 MOL  0.4050
  10   H6        0.8433    3.0119   -0.4489   ho 1 MOL  0.4050
@<TRIPOS>BOND
    1     1     2  1
    2     2     3  1
    3     1     4  1
    4     1     5  1
    5     1     6  1
    6     2     7  1
    7     2     8  1
    8     3     9  1
    9     4    10  1
@<TRIPOS>SUBSTRUCTURE
1 MOL         1 TEMP              0 ****  ****    0 ROOT

@<TRIPOS>MOLECULE
MOL
   10    9    1    0    0
SMALL
bcc


@<TRIPOS>ATOM
   1   C1        0.6360    1.3470    0.4890   c3 1 MOL  0.1274
   2   C2        0.0250   -0.0490    0.2740   c3 1 MOL  0.1274
   3   O1        1.0580   -1.0030    0.0580   oh 1 MOL -0.6040
   4   O2        0.4096    2.1580   -0.6579   oh 1 MOL -0.6040
   5   H1        0.1774    1.8249    1.3573   h1 1 MOL  0.0357
   6   H2        1.7113    1.2615    0.6578   h1 1 MOL  0.0357
   7   H3       -0.6350   -0.0380   -0.5960   h1 1 MOL  0.0357
   8   H4       -0.5520   -0.3440    1.1540   h1 1 MOL  0.0357
   9   H5        0.5890   -1.8550   -0.0690   ho 1 MOL  0.4050
  10   H6        0.8244    3.0188   -0.4405   ho 1 MOL  0.4050
@<TRIPOS>BOND
    1     1     2  1
    2     2     3  1
    3     1     4  1
    4     1     5  1
    5     1     6  1
    6     2     7  1
    7     2     8  1
    8     3     9  1
    9     4    10  1
@<TRIPOS>SUBSTRUCTURE
1 MOL         1 TEMP              0 ****  ****    0 ROOT

@<TRIPOS>MOLECULE
MOL
   10    9    1    0    0
SMALL
bcc


@<TRIPOS>ATOM
   1   C1        0.6360    1.3470    0.4890   c3 1 MOL  0.1274
   2   C2        0.0250   -0.0490    0.2740   c3 1 MOL  0.1274
   3   O1        1.0580   -1.0030    0.0580   oh 1 MOL -0.6040
   4   O2        0.3895    2.1654   -0.6485   oh 1 MOL -0.6040
   5   H1        0.1900    1.8177    1.3677   h1 1 MOL  0.0357
   6   H2        1.7140    1.2631    0.6402   h1 1 MOL  0.0357
   7   H3       -0.6350   -0.0380   -0.5960   h1 1 MOL  0.0357
   8   H4       -0.5520   -0.3440    1.1540   h1 1 MOL  0.0357
   9   H5        0.5890   -1.8550   -0.0690   ho 1 MOL  0.4050
  10   H6        0.8057    3.0257   -0.4317   ho 1 MOL  0.4050
@<TRIPOS>BOND
    1     1     2  1
    2     2     3  1
    3     1     4  1
    4     1     5  1
    5     1     6  1
    6     2     7  1
    7     2     8  1
    8     3     9  1
    9     4    10  1
@<TRIPOS>SUBSTRUCTURE
1 MOL         1 TEMP              0 ****  ****    0 ROOT

@<TRIPOS>MOLECULE
MOL
   10    9    1    0    0
SMALL
bcc


@<TRIPOS>ATOM
   1   C1        0.6360    1.3470    0.4890   c3 1 MOL  0.1274
   2   C2        0.0250   -0.0490    0.2740   c3 1 MOL  0.1274
   3   O1        1.0580   -1.0030    0.0580   oh 1 MOL -0.6040
   4   O2        0.3696    2.1726   -0.6387   oh 1 MOL -0.6040
   5   H1        0.2029    1.8105    1.3779   h1 1 MOL  0.0357
   6   H2        1.7165    1.2647    0.6225   h1 1 MOL  0.0357
   7   H3       -0.6350   -0.0380   -0.5960   h1 1 MOL  0.0357
   8   H4       -0.5520   -0.3440    1.1540   h1 1 MOL  0.0357
   9   H5        0.5890   -1.8550   -0.0690   ho 1 MOL  0.4050
  10   H6        0.7871    3.0324   -0.4226   ho 1 MOL  0.4050
@<TRIPOS>BOND
    1     1     2  1
    2     2     3  1
    3     1     4  1
    4     1     5  1
    5     1     6  1
    6     2     7  1
    7     2     8  1
    8     3     9  1
    9     4    10  1
@<TRIPOS>SUBSTRUCTURE
1 MOL         1 TEMP              0 ****  ****    0 ROOT

@<TRIPOS>MOLECULE
MOL
   10    9    1    0    0
SMALL
bcc


@<TRIPOS>ATOM
   1   C1        0.6360    1.3470    0.4890   c3 1 MOL  0.1274
   2   C2        0.0250   -0.0490    0.2740   c3 1 MOL  0.1274
   3   O1        1.0580   -1.0030    0.0580   oh 1 MOL -0.6040
   4   O2        0.3498    2.1797   -0.6286   oh 1 MOL -0.6040
   5   H1        0.2159    1.8033    1.3879   h1 1 MOL  0.0357
   6   H2        1.7186    1.2665    0.6048   h1 1 MOL  0.0357
   7   H3       -0.6350   -0.0380   -0.5960   h1 1 MOL  0.0357
   8   H4       -0.5520   -0.3440    1.1540   h1 1 MOL  0.0357
   9   H5        0.5890   -1.8550   -0.0690   ho 1 MOL  0.4050
  10   H6        0.7686    3.0390   -0.4132   ho 1 MOL  0.4050
@<TRIPOS>BOND
    1     1     2  1
    2     2     3  1
    3     1     4  1
    4     1     5  1
    5     1     6  1
    6     2     7  1
    7     2     8  1
    8     3     9  1
    9     4    10  1
@<TRIPOS>SUBSTRUCTURE
1 MOL         1 TEMP              0 ****  ****    0 ROOT

@<TRIPOS>MOLECULE
MOL
   10    9    1    0    0
SMALL
bcc


@<TRIPOS>ATOM
   1   C1        0.6360    1.3470    0.4890   c3 1 MOL  0.1274
   2   C2        0.0250   -0.0490    0.2740   c3 1 MOL  0.1274
   3   O1        1.0580   -1.0030    0.0580   oh 1 MOL -0.6040
   4   O2        0.3302    2.1867   -0.6181   oh 1 MOL -0.6040
   5   H1        0.2291    1.7960    1.3976   h1 1 MOL  0.0357
   6   H2        1.7205    1.2684    0.5871   h1 1 MOL  0.0357
   7   H3       -0.6350   -0.0380   -0.5960   h1 1 MOL  0.0357
   8   H4       -0.5520   -0.3440    1.1540   h1 1 MOL  0.0357
   9   H5        0.5890   -1.8550   -0.0690   ho 1 MOL  0.4050
  10   H6        0.7503    3.0455   -0.4034   ho 1 MOL  0.4050
@<TRIPOS>BOND
    1     1     2  1
    2     2     3  1
    3     1     4  1
    4     1     5  1
    5     1     6  1
    6     2     7  1
    7     2     8  1
    8     3     9  1
    9     4    10  1
@<TRIPOS>SUBSTRUCTURE
1 MOL         1 TEMP              0 ****  ****    0 ROOT

@<TRIPOS>MOLECULE
MOL
   10    9    1    0    0
SMALL
bcc


@<TRIPOS>ATOM
   1   C1        0.6360    1.3470    0.4890   c3 1 MOL  0.1274
   2   C2        0.0250   -0.0490    0.2740   c3 1 MOL  0.1274
   3   O1        1.0580   -1.0030    0.0580   oh 1 MOL -0.6040
   4   O2        0.3107    2.1935   -0.6073   oh 1 MOL -0.6040
   5   H1        0.2425    1.7887    1.4070   h1 1 MOL  0.0357
   6   H2        1.7221    1.2704    0.5694   h1 1 MOL  0.0357
   7   H3       -0.6350   -0.0380   -0.5960   h1 1 MOL  0.0357
   8   H4       -0.5520   -0.3440    1.1540   h1 1 MOL  0.0357
   9   H5        0.5890   -1.8550   -0.0690   ho 1 MOL  0.4050
  10   H6        0.7321    3.0520   -0.3932   ho 1 MOL  0.4050
@<TRIPOS>BOND
    1     1     2  1
    2     2     3  1
    3     1     4  1
    4     1     5  1
    5     1     6  1
    6     2     7  1
    7     2     8  1
    8     3     9  1
    9     4    10  1
@<TRIPOS>SUBSTRUCTURE
1 MOL         1 TEMP              0 ****  ****    0 ROOT

@<TRIPOS>MOLECULE
MOL
   10    9    1    0    0
SMALL
bcc


@<TRIPOS>ATOM
   1   C1        0.6360    1.3470    0.4890   c3 1 MOL  0.1274
   2   C2        0.0250   -0.0490    0.2740   c3 1 MOL  0.1274
   3   O1        1.0580   -1.0030    0.0580   oh 1 MOL -0.6040
   4   O2        0.2913    2.2003   -0.5961   oh 1 MOL -0.6040
   5   H1        0.2560    1.7814    1.4161   h1 1 MOL  0.0357
   6   H2        1.7235    1.2726    0.5516   h1 1 MOL  0.0357
   7   H3       -0.6350   -0.0380   -0.5960   h1 1 MOL  0.0357
   8   H4       -0.5520   -0.3440    1.1540   h1 1 MOL  0.0357
   9   H5        0.5890   -1.8550   -0.0690   ho 1 MOL  0.4050
  10   H6        0.7140    3.0582   -0.3828   ho 1 MOL  0.4050
@<TRIPOS>BOND
    1     1     2  1
    2     2     3  1
    3     1     4  1
    4     1     5  1
    5     1     6  1
    6     2     7  1
    7     2     8  1
    8     3     9  1
    9     4    10  1
@<TRIPOS>SUBSTRUCTURE
1 MOL         1 TEMP              0 ****  ****    0 ROOT

@<TRIPOS>MOLECULE
MOL
   10    9    1    0    0
SMALL
bcc


@<TRIPOS>ATOM
   1   C1        0.6360    1.3470    0.4890   c3 1 MOL  0.1274
   2   C2        0.0250   -0.0490    0.2740   c3 1 MOL  0.1274
   3   O1        1.0580   -1.0030    0.0580   oh 1 MOL -0.6040
   4   O2        0.2721    2.2069   -0.5845   oh 1 MOL -0.6040
   5   H1        0.2697    1.7740    1.4250   h1 1 MOL  0.0357
   6   H2        1.7245    1.2748    0.5339   h1 1 MOL  0.0357
   7   H3       -0.6350   -0.0380   -0.5960   h1 1 MOL  0.0357
   8   H4       -0.5520   -0.3440    1.1540   h1 1 MOL  0.0357
   9   H5        0.5890   -1.8550   -0.0690   ho 1 MOL  0.4050
  10   H6        0.6961    3.0644   -0.3720   ho 1 MOL  0.4050
@<TRIPOS>BOND
    1     1     2  1
    2     2     3  1
    3     1     4  1
    4     1     5  1
    5     1     6  1
    6     2     7  1
    7     2     8  1
    8     3     9  1
    9     4    10  1
@<TRIPOS>SUBSTRUCTURE
1 MOL         1 TEMP              0 ****  ****    0 ROOT

@<TRIPOS>MOLECULE
MOL
   10    9    1    0    0
SMALL
bcc


@<TRIPOS>ATOM
   1   C1        0.6360    1.3470    0.4890   c3 1 MOL  0.1274
   2   C2        0.0250   -0.0490    0.2740   c3 1 MOL  0.1274
   3   O1        1.0580   -1.0030    0.0580   oh 1 MOL -0.6040
   4   O2        0.2531    2.2134   -0.5727   oh 1 MOL -0.6040
   5   H1        0.2836    1.7666    1.4337   h1 1 MOL  0.0357
   6   H2        1.7252    1.2773    0.5162   h1 1 MOL  0.0357
   7   H3       -0.6350   -0.0380   -0.5960   h1 1 MOL  0.0357
   8   H4       -0.5520   -0.3440    1.1540   h1 1 MOL  0.0357
   9   H5        0.5890   -1.8550   -0.0690   ho 1 MOL  0.4050
  10   H6        0.6784    3.0705   -0.3609   ho 1 MOL  0.4050
@<TRIPOS>BOND
    1     1     2  1
    2     2     3  1
    3     1     4  1
    4     1     5  1
    5     1     6  1
    6     2     7  1
    7     2     8  1
    8     3     9  1
    9     4    10  1
@<TRIPOS>SUBSTRUCTURE
1 MOL         1 TEMP              0 ****  ****    0 ROOT

@<TRIPOS>MOLECULE
MOL
   10    9    1    0    0
SMALL
bcc


@<TRIPOS>ATOM
   1   C1        0.6360    1.3470    0.4890   c3 1 MOL  0.1274
   2   C2        0.0250   -0.0490    0.2740   c3 1 MOL  0.1274
   3   O1        1.0580   -1.0030    0.0580   oh 1 MOL -0.6040
   4   O2        0.2343    2.2197   -0.5604   oh 1 MOL -0.6040
   5   H1        0.2976    1.7592    1.4420   h1 1 MOL  0.0357
   6   H2        1.7257    1.2798    0.4985   h1 1 MOL  0.0357
   7   H3       -0.6350   -0.0380   -0.5960   h1 1 MOL  0.0357
   8   H4       -0.5520   -0.3440    1.1540   h1 1 MOL  0.0357
   9   H5        0.5890   -1.8550   -0.0690   ho 1 MOL  0.4050
  10   H6        0.6608    3.0764   -0.3495   ho 1 MOL  0.4050
@<TRIPOS>BOND
    1     1     2  1
    2     2     3  1
    3     1     4  1
    4     1     5  1
    5     1     6  1
    6     2     7  1
    7     2     8  1
    8     3     9  1
    9     4    10  1
@<TRIPOS>SUBSTRUCTURE
1 MOL         1 TEMP              0 ****  ****    0 ROOT

@<TRIPOS>MOLECULE
MOL
   10    9    1    0    0
SMALL
bcc


@<TRIPOS>ATOM
   1   C1        0.6360    1.3470    0.4890   c3 1 MOL  0.1274
   2   C2        0.0250   -0.0490    0.2740   c3 1 MOL  0.1274
   3   O1        1.0580   -1.0030    0.0580   oh 1 MOL -0.6040
   4   O2        0.2157    2.2260   -0.5478   oh 1 MOL -0.6040
   5   H1        0.3118    1.7518    1.4501   h1 1 MOL  0.0357
   6   H2        1.7259    1.2824    0.4807   h1 1 MOL  0.0357
   7   H3       -0.6350   -0.0380   -0.5960   h1 1 MOL  0.0357
   8   H4       -0.5520   -0.3440    1.1540   h1 1 MOL  0.0357
   9   H5        0.5890   -1.8550   -0.0690   ho 1 MOL  0.4050
  10   H6        0.6434    3.0822   -0.3377   ho 1 MOL  0.4050
@<TRIPOS>BOND
    1     1     2  1
    2     2     3  1
    3     1     4  1
    4     1     5  1
    5     1     6  1
    6     2     7  1
    7     2     8  1
    8     3     9  1
    9     4    10  1
@<TRIPOS>SUBSTRUCTURE
1 MOL         1 TEMP              0 ****  ****    0 ROOT

@<TRIPOS>MOLECULE
MOL
   10    9    1    0    0
SMALL
bcc


@<TRIPOS>ATOM
   1   C1        0.6360    1.3470    0.4890   c3 1 MOL  0.1274
   2   C2        0.0250   -0.0490    0.2740   c3 1 MOL  0.1274
   3   O1        1.0580   -1.0030    0.0580   oh 1 MOL -0.6040
   4   O2        0.1972    2.2321   -0.5349   oh 1 MOL -0.6040
   5   H1        0.3261    1.7443    1.4579   h1 1 MOL  0.0357
   6   H2        1.7257    1.2852    0.4631   h1 1 MOL  0.0357
   7   H3       -0.6350   -0.0380   -0.5960   h1 1 MOL  0.0357
   8   H4       -0.5520   -0.3440    1.1540   h1 1 MOL  0.0357
   9   H5        0.5890   -1.8550   -0.0690   ho 1 MOL  0.4050
  10   H6        0.6262    3.0879   -0.3256   ho 1 MOL  0.4050
@<TRIPOS>BOND
    1     1     2  1
    2     2     3  1
    3     1     4  1
    4     1     5  1
    5     1     6  1
    6     2     7  1
    7     2     8  1
    8     3     9  1
    9     4    10  1
@<TRIPOS>SUBSTRUCTURE
1 MOL         1 TEMP              0 ****  ****    0 ROOT

@<TRIPOS>MOLECULE
MOL
   10    9    1    0    0
SMALL
bcc


@<TRIPOS>ATOM
   1   C1        0.6360    1.3470    0.4890   c3 1 MOL  0.1274
   2   C2        0.0250   -0.0490    0.2740   c3 1 MOL  0.1274
   3   O1        1.0580   -1.0030    0.0580   oh 1 MOL -0.6040
   4   O2        0.1789    2.2380   -0.5217   oh 1 MOL -0.6040
   5   H1        0.3405    1.7368    1.4654   h1 1 MOL  0.0357
   6   H2        1.7253    1.2881    0.4454   h1 1 MOL  0.0357
   7   H3       -0.6350   -0.0380   -0.5960   h1 1 MOL  0.0357
   8   H4       -0.5520   -0.3440    1.1540   h1 1 MOL  0.0357
   9   H5        0.5890   -1.8550   -0.0690   ho 1 MOL  0.4050
  10   H6        0.6091    3.0934   -0.3133   ho 1 MOL  0.4050
@<TRIPOS>BOND
    1     1     2  1
    2     2     3  1
    3     1     4  1
    4     1     5  1
    5     1     6  1
    6     2     7  1
    7     2     8  1
    8     3     9  1
    9     4    10  1
@<TRIPOS>SUBSTRUCTURE
1 MOL         1 TEMP              0 ****  ****    0 ROOT

@<TRIPOS>MOLECULE
MOL
   10    9    1    0    0
SMALL
bcc


@<TRIPOS>ATOM
   1   C1        0.6360    1.3470    0.4890   c3 1 MOL  0.1274
   2   C2        0.0250   -0.0490    0.2740   c3 1 MOL  0.1274
   3   O1        1.0580   -1.0030    0.0580   oh 1 MOL -0.6040
   4   O2        0.1608    2.2438   -0.5081   oh 1 MOL -0.6040
   5   H1        0.3551    1.7293    1.4726   h1 1 MOL  0.0357
   6   H2        1.7246    1.2911    0.4277   h1 1 MOL  0.0357
   7   H3       -0.6350   -0.0380   -0.5960   h1 1 MOL  0.0357
   8   H4       -0.5520   -0.3440    1.1540   h1 1 MOL  0.0357
   9   H5        0.5890   -1.8550   -0.0690   ho 1 MOL  0.4050
  10   H6        0.5923    3.0989   -0.3006   ho 1 MOL  0.4050
@<TRIPOS>BOND
    1     1     2  1
    2     2     3  1
    3     1     4  1
    4     1     5  1
    5     1     6  1
    6     2     7  1
    7     2     8  1
    8     3     9  1
    9     4    10  1
@<TRIPOS>SUBSTRUCTURE
1 MOL         1 TEMP              0 ****  ****    0 ROOT

@<TRIPOS>MOLECULE
MOL
   10    9    1    0    0
SMALL
bcc


@<TRIPOS>ATOM
   1   C1        0.6360    1.3470    0.4890   c3 1 MOL  0.1274
   2   C2        0.0250   -0.0490    0.2740   c3 1 MOL  0.1274
   3   O1        1.0580   -1.0030    0.0580   oh 1 MOL -0.6040
   4   O2        0.1430    2.2495   -0.4942   oh 1 MOL -0.6040
   5   H1        0.3698    1.7218    1.4796   h1 1 MOL  0.0357
   6   H2        1.7237    1.2943    0.4101   h1 1 MOL  0.0357
   7   H3       -0.6350   -0.0380   -0.5960   h1 1 MOL  0.0357
   8   H4       -0.5520   -0.3440    1.1540   h1 1 MOL  0.0357
   9   H5        0.5890   -1.8550   -0.0690   ho 1 MOL  0.4050
  10   H6        0.5756    3.1042   -0.2876   ho 1 MOL  0.4050
@<TRIPOS>BOND
    1     1     2  1
    2     2     3  1
    3     1     4  1
    4     1     5  1
    5     1     6  1
    6     2     7  1
    7     2     8  1
    8     3     9  1
    9     4    10  1
@<TRIPOS>SUBSTRUCTURE
1 MOL         1 TEMP              0 ****  ****    0 ROOT

@<TRIPOS>MOLECULE
MOL
   10    9    1    0    0
SMALL
bcc


@<TRIPOS>ATOM
   1   C1        0.6360    1.3470    0.4890   c3 1 MOL  0.1274
   2   C2        0.0250   -0.0490    0.2740   c3 1 MOL  0.1274
   3   O1        1.0580   -1.0030    0.0580   oh 1 MOL -0.6040
   4   O2        0.1253    2.2551   -0.4800   oh 1 MOL -0.6040
   5   H1        0.3846    1.7143    1.4863   h1 1 MOL  0.0357
   6   H2        1.7224    1.2975    0.3926   h1 1 MOL  0.0357
   7   H3       -0.6350   -0.0380   -0.5960   h1 1 MOL  0.0357
   8   H4       -0.5520   -0.3440    1.1540   h1 1 MOL  0.0357
   9   H5        0.5890   -1.8550   -0.0690   ho 1 MOL  0.4050
  10   H6        0.5591    3.1093   -0.2743   ho 1 MOL  0.4050
@<TRIPOS>BOND
    1     1     2  1
    2     2     3  1
    3     1     4  1
    4     1     5  1
    5     1     6  1
    6     2     7  1
    7     2     8  1
    8     3     9  1
    9     4    10  1
@<TRIPOS>SUBSTRUCTURE
1 MOL         1 TEMP              0 ****  ****    0 ROOT

@<TRIPOS>MOLECULE
MOL
   10    9    1    0    0
SMALL
bcc


@<TRIPOS>ATOM
   1   C1        0.6360    1.3470    0.4890   c3 1 MOL  0.1274
   2   C2        0.0250   -0.0490    0.2740   c3 1 MOL  0.1274
   3   O1        1.0580   -1.0030    0.0580   oh 1 MOL -0.6040
   4   O2        0.1079    2.2605   -0.4655   oh 1 MOL -0.6040
   5   H1        0.3996    1.7068    1.4927   h1 1 MOL  0.0357
   6   H2        1.7209    1.3009    0.3751   h1 1 MOL  0.0357
   7   H3       -0.6350   -0.0380   -0.5960   h1 1 MOL  0.0357
   8   H4       -0.5520   -0.3440    1.1540   h1 1 MOL  0.0357
   9   H5        0.5890   -1.8550   -0.0690   ho 1 MOL  0.4050
  10   H6        0.5428    3.1144   -0.2608   ho 1 MOL  0.4050
@<TRIPOS>BOND
    1     1     2  1
    2     2     3  1
    3     1     4  1
    4     1     5  1
    5     1     6  1
    6     2     7  1
    7     2     8  1
    8     3     9  1
    9     4    10  1
@<TRIPOS>SUBSTRUCTURE
1 MOL         1 TEMP              0 ****  ****    0 ROOT

@<TRIPOS>MOLECULE
MOL
   10    9    1    0    0
SMALL
bcc


@<TRIPOS>ATOM
   1   C1        0.6360    1.3470    0.4890   c3 1 MOL  0.1274
   2   C2        0.0250   -0.0490    0.2740   c3 1 MOL  0.1274
   3   O1        1.0580   -1.0030    0.0580   oh 1 MOL -0.6040
   4   O2        0.0906    2.2657   -0.4506   oh 1 MOL -0.6040
   5   H1        0.4146    1.6992    1.4987   h1 1 MOL  0.0357
   6   H2        1.7190    1.3044    0.3576   h1 1 MOL  0.0357
   7   H3       -0.6350   -0.0380   -0.5960   h1 1 MOL  0.0357
   8   H4       -0.5520   -0.3440    1.1540   h1 1 MOL  0.0357
   9   H5        0.5890   -1.8550   -0.0690   ho 1 MOL  0.4050
  10   H6        0.5268    3.1193   -0.2469   ho 1 MOL  0.4050
@<TRIPOS>BOND
    1     1     2  1
    2     2     3  1
    3     1     4  1
    4     1     5  1
    5     1     6  1
    6     2     7  1
    7     2     8  1
    8     3     9  1
    9     4    10  1
@<TRIPOS>SUBSTRUCTURE
1 MOL         1 TEMP              0 ****  ****    0 ROOT

@<TRIPOS>MOLECULE
MOL
   10    9    1    0    0
SMALL
bcc


@<TRIPOS>ATOM
   1   C1        0.6360    1.3470    0.4890   c3 1 MOL  0.1274
   2   C2        0.0250   -0.0490    0.2740   c3 1 MOL  0.1274
   3   O1        1.0580   -1.0030    0.0580   oh 1 MOL -0.6040
   4   O2        0.0736    2.2708   -0.4355   oh 1 MOL -0.6040
   5   H1        0.4298    1.6917    1.5045   h1 1 MOL  0.0357
   6   H2        1.7169    1.3080    0.3402   h1 1 MOL  0.0357
   7   H3       -0.6350   -0.0380   -0.5960   h1 1 MOL  0.0357
   8   H4       -0.5520   -0.3440    1.1540   h1 1 MOL  0.0357
   9   H5        0.5890   -1.8550   -0.0690   ho 1 MOL  0.4050
  10   H6        0.5109    3.1240   -0.2327   ho 1 MOL  0.4050
@<TRIPOS>BOND
    1     1     2  1
    2     2     3  1
    3     1     4  1
    4     1     5  1
    5     1     6  1
    6     2     7  1
    7     2     8  1
    8     3     9  1
    9     4    10  1
@<TRIPOS>SUBSTRUCTURE
1 MOL         1 TEMP              0 ****  ****    0 ROOT

@<TRIPOS>MOLECULE
MOL
   10    9    1    0    0
SMALL
bcc


@<TRIPOS>ATOM
   1   C1        0.6360    1.3470    0.4890   c3 1 MOL  0.1274
   2   C2        0.0250   -0.0490    0.2740   c3 1 MOL  0.1274
   3   O1        1.0580   -1.0030    0.0580   oh 1 MOL -0.6040
   4   O2        0.0569    2.2758   -0.4200   oh 1 MOL -0.6040
   5   H1        0.4451    1.6842    1.5100   h1 1 MOL  0.0357
   6   H2        1.7145    1.3117    0.3228   h1 1 MOL  0.0357
   7   H3       -0.6350   -0.0380   -0.5960   h1 1 MOL  0.0357
   8   H4       -0.5520   -0.3440    1.1540   h1 1 MOL  0.0357
   9   H5        0.5890   -1.8550   -0.0690   ho 1 MOL  0.4050
  10   H6        0.4952    3.1287   -0.2183   ho 1 MOL  0.4050
@<TRIPOS>BOND
    1     1     2  1
    2     2     3  1
    3     1     4  1
    4     1     5  1
    5     1     6  1
    6     2     7  1
    7     2     8  1
    8     3     9  1
    9     4    10  1
@<TRIPOS>SUBSTRUCTURE
1 MOL         1 TEMP              0 ****  ****    0 ROOT

@<TRIPOS>MOLECULE
MOL
   10    9    1    0    0
SMALL
bcc


@<TRIPOS>ATOM
   1   C1        0.6360    1.3470    0.4890   c3 1 MOL  0.1274
   2   C2        0.0250   -0.0490    0.2740   c3 1 MOL  0.1274
   3   O1        1.0580   -1.0030    0.0580   oh 1 MOL -0.6040
   4   O2        0.0403    2.2806   -0.4042   oh 1 MOL -0.6040
   5   H1        0.4605    1.6766    1.5153   h1 1 MOL  0.0357
   6   H2        1.7118    1.3156    0.3055   h1 1 MOL  0.0357
   7   H3       -0.6350   -0.0380   -0.5960   h1 1 MOL  0.0357
   8   H4       -0.5520   -0.3440    1.1540   h1 1 MOL  0.0357
   9   H5        0.5890   -1.8550   -0.0690   ho 1 MOL  0.4050
  10   H6        0.4798    3.1332   -0.2036   ho 1 MOL  0.4050
@<TRIPOS>BOND
    1     1     2  1
    2     2     3  1
    3     1     4  1
    4     1     5  1
    5     1     6  1
    6     2     7  1
    7     2     8  1
    8     3     9  1
    9     4    10  1
@<TRIPOS>SUBSTRUCTURE
1 MOL         1 TEMP              0 ****  ****    0 ROOT

@<TRIPOS>MOLECULE
MOL
   10    9    1    0    0
SMALL
bcc


@<TRIPOS>ATOM
   1   C1        0.6360    1.3470    0.4890   c3 1 MOL  0.1274
   2   C2        0.0250   -0.0490    0.2740   c3 1 MOL  0.1274
   3   O1        1.0580   -1.0030    0.0580   oh 1 MOL -0.6040
   4   O2        0.0240    2.2853   -0.3882   oh 1 MOL -0.6040
   5   H1        0.4760    1.6691    1.5202   h1 1 MOL  0.0357
   6   H2        1.7088    1.3195    0.2883   h1 1 MOL  0.0357
   7   H3       -0.6350   -0.0380   -0.5960   h1 1 MOL  0.0357
   8   H4       -0.5520   -0.3440    1.1540   h1 1 MOL  0.0357
   9   H5        0.5890   -1.8550   -0.0690   ho 1 MOL  0.4050
  10   H6        0.4646    3.1375   -0.1886   ho 1 MOL  0.4050
@<TRIPOS>BOND
    1     1     2  1
    2     2     3  1
    3     1     4  1
    4     1     5  1
    5     1     6  1
    6     2     7  1
    7     2     8  1
    8     3     9  1
    9     4    10  1
@<TRIPOS>SUBSTRUCTURE
1 MOL         1 TEMP              0 ****  ****    0 ROOT

@<TRIPOS>MOLECULE
MOL
   10    9    1    0    0
SMALL
bcc


@<TRIPOS>ATOM
   1   C1        0.6360    1.3470    0.4890   c3 1 MOL  0.1274
   2   C2        0.0250   -0.0490    0.2740   c3 1 MOL  0.1274
   3   O1        1.0580   -1.0030    0.0580   oh 1 MOL -0.6040
   4   O2        0.0080    2.2898   -0.3719   oh 1 MOL -0.6040
   5   H1        0.4916    1.6616    1.5248   h1 1 MOL  0.0357
   6   H2        1.7056    1.3236    0.2712   h1 1 MOL  0.0357
   7   H3       -0.6350   -0.0380   -0.5960   h1 1 MOL  0.0357
   8   H4       -0.5520   -0.3440    1.1540   h1 1 MOL  0.0357
   9   H5        0.5890   -1.8550   -0.0690   ho 1 MOL  0.4050
  10   H6        0.4496    3.1417   -0.1733   ho 1 MOL  0.4050
@<TRIPOS>BOND
    1     1     2  1
    2     2     3  1
    3     1     4  1
    4     1     5  1
    5     1     6  1
    6     2     7  1
    7     2     8  1
    8     3     9  1
    9     4    10  1
@<TRIPOS>SUBSTRUCTURE
1 MOL         1 TEMP              0 ****  ****    0 ROOT

@<TRIPOS>MOLECULE
MOL
   10    9    1    0    0
SMALL
bcc


@<TRIPOS>ATOM
   1   C1        0.6360    1.3470    0.4890   c3 1 MOL  0.1274
   2   C2        0.0250   -0.0490    0.2740   c3 1 MOL  0.1274
   3   O1        1.0580   -1.0030    0.0580   oh 1 MOL -0.6040
   4   O2       -0.0078    2.2941   -0.3553   oh 1 MOL -0.6040
   5   H1        0.5073    1.6540    1.5291   h1 1 MOL  0.0357
   6   H2        1.7021    1.3278    0.2541   h1 1 MOL  0.0357
   7   H3       -0.6350   -0.0380   -0.5960   h1 1 MOL  0.0357
   8   H4       -0.5520   -0.3440    1.1540   h1 1 MOL  0.0357
   9   H5        0.5890   -1.8550   -0.0690   ho 1 MOL  0.4050
  10   H6        0.4349    3.1458   -0.1578   ho 1 MOL  0.4050
@<TRIPOS>BOND
    1     1     2  1
    2     2     3  1
    3     1     4  1
    4     1     5  1
    5     1     6  1
    6     2     7  1
    7     2     8  1
    8     3     9  1
    9     4    10  1
@<TRIPOS>SUBSTRUCTURE
1 MOL         1 TEMP              0 ****  ****    0 ROOT

@<TRIPOS>MOLECULE
MOL
   10    9    1    0    0
SMALL
bcc


@<TRIPOS>ATOM
   1   C1        0.6360    1.3470    0.4890   c3 1 MOL  0.1274
   2   C2        0.0250   -0.0490    0.2740   c3 1 MOL  0.1274
   3   O1        1.0580   -1.0030    0.0580   oh 1 MOL -0.6040
   4   O2       -0.0234    2.2983   -0.3384   oh 1 MOL -0.6040
   5   H1        0.5230    1.6465    1.5331   h1 1 MOL  0.0357
   6   H2        1.6982    1.3320    0.2372   h1 1 MOL  0.0357
   7   H3       -0.6350   -0.0380   -0.5960   h1 1 MOL  0.0357
   8   H4       -0.5520   -0.3440    1.1540   h1 1 MOL  0.0357
   9   H5        0.5890   -1.8550   -0.0690   ho 1 MOL  0.4050
  10   H6        0.4204    3.1497   -0.1421   ho 1 MOL  0.4050
@<TRIPOS>BOND
    1     1     2  1
    2     2     3  1
    3     1     4  1
    4     1     5  1
    5     1     6  1
    6     2     7  1
    7     2     8  1
    8     3     9  1
    9     4    10  1
@<TRIPOS>SUBSTRUCTURE
1 MOL         1 TEMP              0 ****  ****    0 ROOT

@<TRIPOS>MOLECULE
MOL
   10    9    1    0    0
SMALL
bcc


@<TRIPOS>ATOM
   1   C1        0.6360    1.3470    0.4890   c3 1 MOL  0.1274
   2   C2        0.0250   -0.0490    0.2740   c3 1 MOL  0.1274
   3   O1        1.0580   -1.0030    0.0580   oh 1 MOL -0.6040
   4   O2       -0.0387    2.3024   -0.3212   oh 1 MOL -0.6040
   5   H1        0.5389    1.6390    1.5368   h1 1 MOL  0.0357
   6   H2        1.6942    1.3364    0.2203   h1 1 MOL  0.0357
   7   H3       -0.6350   -0.0380   -0.5960   h1 1 MOL  0.0357
   8   H4       -0.5520   -0.3440    1.1540   h1 1 MOL  0.0357
   9   H5        0.5890   -1.8550   -0.0690   ho 1 MOL  0.4050
  10   H6        0.4061    3.1535   -0.1260   ho 1 MOL  0.4050
@<TRIPOS>BOND
    1     1     2  1
    2     2     3  1
    3     1     4  1
    4     1     5  1
    5     1     6  1
    6     2     7  1
    7     2     8  1
    8     3     9  1
    9     4    10  1
@<TRIPOS>SUBSTRUCTURE
1 MOL         1 TEMP              0 ****  ****    0 ROOT

@<TRIPOS>MOLECULE
MOL
   10    9    1    0    0
SMALL
bcc


@<TRIPOS>ATOM
   1   C1        0.6360    1.3470    0.4890   c3 1 MOL  0.1274
   2   C2        0.0250   -0.0490    0.2740   c3 1 MOL  0.1274
   3   O1        1.0580   -1.0030    0.0580   oh 1 MOL -0.6040
   4   O2       -0.0537    2.3063   -0.3038   oh 1 MOL -0.6040
   5   H1        0.5548    1.6315    1.5402   h1 1 MOL  0.0357
   6   H2        1.6898    1.3409    0.2035   h1 1 MOL  0.0357
   7   H3       -0.6350   -0.0380   -0.5960   h1 1 MOL  0.0357
   8   H4       -0.5520   -0.3440    1.1540   h1 1 MOL  0.0357
   9   H5        0.5890   -1.8550   -0.0690   ho 1 MOL  0.4050
  10   H6        0.3921    3.1571   -0.1097   ho 1 MOL  0.4050
@<TRIPOS>BOND
    1     1     2  1
    2     2     3  1
    3     1     4  1
    4     1     5  1
    5     1     6  1
    6     2     7  1
    7     2     8  1
    8     3     9  1
    9     4    10  1
@<TRIPOS>SUBSTRUCTURE
1 MOL         1 TEMP              0 ****  ****    0 ROOT

@<TRIPOS>MOLECULE
MOL
   10    9    1    0    0
SMALL
bcc


@<TRIPOS>ATOM
   1   C1        0.6360    1.3470    0.4890   c3 1 MOL  0.1274
   2   C2        0.0250   -0.0490    0.2740   c3 1 MOL  0.1274
   3   O1        1.0580   -1.0030    0.0580   oh 1 MOL -0.6040
   4   O2       -0.0684    2.3100   -0.2861   oh 1 MOL -0.6040
   5   H1        0.5708    1.6240    1.5433   h1 1 MOL  0.0357
   6   H2        1.6852    1.3455    0.1868   h1 1 MOL  0.0357
   7   H3       -0.6350   -0.0380   -0.5960   h1 1 MOL  0.0357
   8   H4       -0.5520   -0.3440    1.1540   h1 1 MOL  0.0357
   9   H5        0.5890   -1.8550   -0.0690   ho 1 MOL  0.4050
  10   H6        0.3783    3.1606   -0.0932   ho 1 MOL  0.4050
@<TRIPOS>BOND
    1     1     2  1
    2     2     3  1
    3     1     4  1
    4     1     5  1
    5     1     6  1
    6     2     7  1
    7     2     8  1
    8     3     9  1
    9     4    10  1
@<TRIPOS>SUBSTRUCTURE
1 MOL         1 TEMP              0 ****  ****    0 ROOT

@<TRIPOS>MOLECULE
MOL
   10    9    1    0    0
SMALL
bcc


@<TRIPOS>ATOM
   1   C1        0.6360    1.3470    0.4890   c3 1 MOL  0.1274
   2   C2        0.0250   -0.0490    0.2740   c3 1 MOL  0.1274
   3   O1        1.0580   -1.0030    0.0580   oh 1 MOL -0.6040
   4   O2       -0.0829    2.3136   -0.2681   oh 1 MOL -0.6040
   5   H1        0.5868    1.6166    1.5461   h1 1 MOL  0.0357
   6   H2        1.6802    1.3502    0.1703   h1 1 MOL  0.0357
   7   H3       -0.6350   -0.0380   -0.5960   h1 1 MOL  0.0357
   8   H4       -0.5520   -0.3440    1.1540   h1 1 MOL  0.0357
   9   H5        0.5890   -1.8550   -0.0690   ho 1 MOL  0.4050
  10   H6        0.3648    3.1639   -0.0764   ho 1 MOL  0.4050
@<TRIPOS>BOND
    1     1     2  1
    2     2     3  1
    3     1     4  1
    4     1     5  1
    5     1     6  1
    6     2     7  1
    7     2     8  1
    8     3     9  1
    9     4    10  1
@<TRIPOS>SUBSTRUCTURE
1 MOL         1 TEMP              0 ****  ****    0 ROOT

@<TRIPOS>MOLECULE
MOL
   10    9    1    0    0
SMALL
bcc


@<TRIPOS>ATOM
   1   C1        0.6360    1.3470    0.4890   c3 1 MOL  0.1274
   2   C2        0.0250   -0.0490    0.2740   c3 1 MOL  0.1274
   3   O1        1.0580   -1.0030    0.0580   oh 1 MOL -0.6040
   4   O2       -0.0971    2.3170   -0.2499   oh 1 MOL -0.6040
   5   H1        0.6029    1.6092    1.5486   h1 1 MOL  0.0357
   6   H2        1.6750    1.3550    0.1538   h1 1 MOL  0.0357
   7   H3       -0.6350   -0.0380   -0.5960   h1 1 MOL  0.0357
   8   H4       -0.5520   -0.3440    1.1540   h1 1 MOL  0.0357
   9   H5        0.5890   -1.8550   -0.0690   ho 1 MOL  0.4050
  10   H6        0.3516    3.1671   -0.0594   ho 1 MOL  0.4050
@<TRIPOS>BOND
    1     1     2  1
    2     2     3  1
    3     1     4  1
    4     1     5  1
    5     1     6  1
    6     2     7  1
    7     2     8  1
    8     3     9  1
    9     4    10  1
@<TRIPOS>SUBSTRUCTURE
1 MOL         1 TEMP              0 ****  ****    0 ROOT

@<TRIPOS>MOLECULE
MOL
   10    9    1    0    0
SMALL
bcc


@<TRIPOS>ATOM
   1   C1        0.6360    1.3470    0.4890   c3 1 MOL  0.1274
   2   C2        0.0250   -0.0490    0.2740   c3 1 MOL  0.1274
   3   O1        1.0580   -1.0030    0.0580   oh 1 MOL -0.6040
   4   O2       -0.1110    2.3202   -0.2315   oh 1 MOL -0.6040
   5   H1        0.6191    1.6017    1.5508   h1 1 MOL  0.0357
   6   H2        1.6696    1.3599    0.1375   h1 1 MOL  0.0357
   7   H3       -0.6350   -0.0380   -0.5960   h1 1 MOL  0.0357
   8   H4       -0.5520   -0.3440    1.1540   h1 1 MOL  0.0357
   9   H5        0.5890   -1.8550   -0.0690   ho 1 MOL  0.4050
  10   H6        0.3386    3.1701   -0.0422   ho 1 MOL  0.4050
@<TRIPOS>BOND
    1     1     2  1
    2     2     3  1
    3     1     4  1
    4     1     5  1
    5     1     6  1
    6     2     7  1
    7     2     8  1
    8     3     9  1
    9     4    10  1
@<TRIPOS>SUBSTRUCTURE
1 MOL         1 TEMP              0 ****  ****    0 ROOT

@<TRIPOS>MOLECULE
MOL
   10    9    1    0    0
SMALL
bcc


@<TRIPOS>ATOM
   1   C1        0.6360    1.3470    0.4890   c3 1 MOL  0.1274
   2   C2        0.0250   -0.0490    0.2740   c3 1 MOL  0.1274
   3   O1        1.0580   -1.0030    0.0580   oh 1 MOL -0.6040
   4   O2       -0.1247    2.3233   -0.2128   oh 1 MOL -0.6040
   5   H1        0.6353    1.5944    1.5527   h1 1 MOL  0.0357
   6   H2        1.6639    1.3649    0.1213   h1 1 MOL  0.0357
   7   H3       -0.6350   -0.0380   -0.5960   h1 1 MOL  0.0357
   8   H4       -0.5520   -0.3440    1.1540   h1 1 MOL  0.0357
   9   H5        0.5890   -1.8550   -0.0690   ho 1 MOL  0.4050
  10   H6        0.3258    3.1730   -0.0248   ho 1 MOL  0.4050
@<TRIPOS>BOND
    1     1     2  1
    2     2     3  1
    3     1     4  1
    4     1     5  1
    5     1     6  1
    6     2     7  1
    7     2     8  1
    8     3     9  1
    9     4    10  1
@<TRIPOS>SUBSTRUCTURE
1 MOL         1 TEMP              0 ****  ****    0 ROOT

@<TRIPOS>MOLECULE
MOL
   10    9    1    0    0
SMALL
bcc


@<TRIPOS>ATOM
   1   C1        0.6360    1.3470    0.4890   c3 1 MOL  0.1274
   2   C2        0.0250   -0.0490    0.2740   c3 1 MOL  0.1274
   3   O1        1.0580   -1.0030    0.0580   oh 1 MOL -0.6040
   4   O2       -0.1380    2.3262   -0.1938   oh 1 MOL -0.6040
   5   H1        0.6516    1.5870    1.5543   h1 1 MOL  0.0357
   6   H2        1.6579    1.3700    0.1052   h1 1 MOL  0.0357
   7   H3       -0.6350   -0.0380   -0.5960   h1 1 MOL  0.0357
   8   H4       -0.5520   -0.3440    1.1540   h1 1 MOL  0.0357
   9   H5        0.5890   -1.8550   -0.0690   ho 1 MOL  0.4050
  10   H6        0.3134    3.1757   -0.0071   ho 1 MOL  0.4050
@<TRIPOS>BOND
    1     1     2  1
    2     2     3  1
    3     1     4  1
    4     1     5  1
    5     1     6  1
    6     2     7  1
    7     2     8  1
    8     3     9  1
    9     4    10  1
@<TRIPOS>SUBSTRUCTURE
1 MOL         1 TEMP              0 ****  ****    0 ROOT

@<TRIPOS>MOLECULE
MOL
   10    9    1    0    0
SMALL
bcc


@<TRIPOS>ATOM
   1   C1        0.6360    1.3470    0.4890   c3 1 MOL  0.1274
   2   C2        0.0250   -0.0490    0.2740   c3 1 MOL  0.1274
   3   O1        1.0580   -1.0030    0.0580   oh 1 MOL -0.6040
   4   O2       -0.1511    2.3290   -0.1747   oh 1 MOL -0.6040
   5   H1        0.6679    1.5797    1.5555   h1 1 MOL  0.0357
   6   H2        1.6516    1.3752    0.0892   h1 1 MOL  0.0357
   7   H3       -0.6350   -0.0380   -0.5960   h1 1 MOL  0.0357
   8   H4       -0.5520   -0.3440    1.1540   h1 1 MOL  0.0357
   9   H5        0.5890   -1.8550   -0.0690   ho 1 MOL  0.4050
  10   H6        0.3012    3.1783    0.0108   ho 1 MOL  0.4050
@<TRIPOS>BOND
    1     1     2  1
    2     2     3  1
    3     1     4  1
    4     1     5  1
    5     1     6  1
    6     2     7  1
    7     2     8  1
    8     3     9  1
    9     4    10  1
@<TRIPOS>SUBSTRUCTURE
1 MOL         1 TEMP              0 ****  ****    0 ROOT

@<TRIPOS>MOLECULE
MOL
   10    9    1    0    0
SMALL
bcc


@<TRIPOS>ATOM
   1   C1        0.6360    1.3470    0.4890   c3 1 MOL  0.1274
   2   C2        0.0250   -0.0490    0.2740   c3 1 MOL  0.1274
   3   O1        1.0580   -1.0030    0.0580   oh 1 MOL -0.6040
   4   O2       -0.1638    2.3316   -0.1553   oh 1 MOL -0.6040
   5   H1        0.6842    1.5724    1.5565   h1 1 MOL  0.0357
   6   H2        1.6451    1.3805    0.0734   h1 1 MOL  0.0357
   7   H3       -0.6350   -0.0380   -0.5960   h1 1 MOL  0.0357
   8   H4       -0.5520   -0.3440    1.1540   h1 1 MOL  0.0357
   9   H5        0.5890   -1.8550   -0.0690   ho 1 MOL  0.4050
  10   H6        0.2893    3.1807    0.0289   ho 1 MOL  0.4050
@<TRIPOS>BOND
    1     1     2  1
    2     2     3  1
    3     1     4  1
    4     1     5  1
    5     1     6  1
    6     2     7  1
    7     2     8  1
    8     3     9  1
    9     4    10  1
@<TRIPOS>SUBSTRUCTURE
1 MOL         1 TEMP              0 ****  ****    0 ROOT

@<TRIPOS>MOLECULE
MOL
   10    9    1    0    0
SMALL
bcc


@<TRIPOS>ATOM
   1   C1        0.6360    1.3470    0.4890   c3 1 MOL  0.1274
   2   C2        0.0250   -0.0490    0.2740   c3 1 MOL  0.1274
   3   O1        1.0580   -1.0030    0.0580   oh 1 MOL -0.6040
   4   O2       -0.1763    2.3340   -0.1357   oh 1 MOL -0.6040
   5   H1        0.7006    1.5651    1.5571   h1 1 MOL  0.0357
   6   H2        1.6383    1.3859    0.0578   h1 1 MOL  0.0357
   7   H3       -0.6350   -0.0380   -0.5960   h1 1 MOL  0.0357
   8   H4       -0.5520   -0.3440    1.1540   h1 1 MOL  0.0357
   9   H5        0.5890   -1.8550   -0.0690   ho 1 MOL  0.4050
  10   H6        0.2777    3.1830    0.0472   ho 1 MOL  0.4050
@<TRIPOS>BOND
    1     1     2  1
    2     2     3  1
    3     1     4  1
    4     1     5  1
    5     1     6  1
    6     2     7  1
    7     2     8  1
    8     3     9  1
    9     4    10  1
@<TRIPOS>SUBSTRUCTURE
1 MOL         1 TEMP              0 ****  ****    0 ROOT

@<TRIPOS>MOLECULE
MOL
   10    9    1    0    0
SMALL
bcc


@<TRIPOS>ATOM
   1   C1        0.6360    1.3470    0.4890   c3 1 MOL  0.1274
   2   C2        0.0250   -0.0490    0.2740   c3 1 MOL  0.1274
   3   O1        1.0580   -1.0030    0.0580   oh 1 MOL -0.6040
   4   O2       -0.1884    2.3363   -0.1159   oh 1 MOL -0.6040
   5   H1        0.7169    1.5579    1.5575   h1 1 MOL  0.0357
   6   H2        1.6312    1.3914    0.0422   h1 1 MOL  0.0357
   7   H3       -0.6350   -0.0380   -0.5960   h1 1 MOL  0.0357
   8   H4       -0.5520   -0.3440    1.1540   h1 1 MOL  0.0357
   9   H5        0.5890   -1.8550   -0.0690   ho 1 MOL  0.4050
  10   H6        0.2664    3.1851    0.0657   ho 1 MOL  0.4050
@<TRIPOS>BOND
    1     1     2  1
    2     2     3  1
    3     1     4  1
    4     1     5  1
    5     1     6  1
    6     2     7  1
    7     2     8  1
    8     3     9  1
    9     4    10  1
@<TRIPOS>SUBSTRUCTURE
1 MOL         1 TEMP              0 ****  ****    0 ROOT

@<TRIPOS>MOLECULE
MOL
   10    9    1    0    0
SMALL
bcc


@<TRIPOS>ATOM
   1   C1        0.6360    1.3470    0.4890   c3 1 MOL  0.1274
   2   C2        0.0250   -0.0490    0.2740   c3 1 MOL  0.1274
   3   O1        1.0580   -1.0030    0.0580   oh 1 MOL -0.6040
   4   O2       -0.2003    2.3384   -0.0959   oh 1 MOL -0.6040
   5   H1        0.7334    1.5507    1.5575   h1 1 MOL  0.0357
   6   H2        1.6239    1.3970    0.0269   h1 1 MOL  0.0357
   7   H3       -0.6350   -0.0380   -0.5960   h1 1 MOL  0.0357
   8   H4       -0.5520   -0.3440    1.1540   h1 1 MOL  0.0357
   9   H5        0.5890   -1.8550   -0.0690   ho 1 MOL  0.4050
  10   H6        0.2553    3.1871    0.0844   ho 1 MOL  0.4050
@<TRIPOS>BOND
    1     1     2  1
    2     2     3  1
    3     1     4  1
    4     1     5  1
    5     1     6  1
    6     2     7  1
    7     2     8  1
    8     3     9  1
    9     4    10  1
@<TRIPOS>SUBSTRUCTURE
1 MOL         1 TEMP              0 ****  ****    0 ROOT

@<TRIPOS>MOLECULE
MOL
   10    9    1    0    0
SMALL
bcc


@<TRIPOS>ATOM
   1   C1        0.6360    1.3470    0.4890   c3 1 MOL  0.1274
   2   C2        0.0250   -0.0490    0.2740   c3 1 MOL  0.1274
   3   O1        1.0580   -1.0030    0.0580   oh 1 MOL -0.6040
   4   O2       -0.2118    2.3403   -0.0757   oh 1 MOL -0.6040
   5   H1        0.7498    1.5436    1.5572   h1 1 MOL  0.0357
   6   H2        1.6163    1.4026    0.0117   h1 1 MOL  0.0357
   7   H3       -0.6350   -0.0380   -0.5960   h1 1 MOL  0.0357
   8   H4       -0.5520   -0.3440    1.1540   h1 1 MOL  0.0357
   9   H5        0.5890   -1.8550   -0.0690   ho 1 MOL  0.4050
  10   H6        0.2446    3.1889    0.1032   ho 1 MOL  0.4050
@<TRIPOS>BOND
    1     1     2  1
    2     2     3  1
    3     1     4  1
    4     1     5  1
    5     1     6  1
    6     2     7  1
    7     2     8  1
    8     3     9  1
    9     4    10  1
@<TRIPOS>SUBSTRUCTURE
1 MOL         1 TEMP              0 ****  ****    0 ROOT

@<TRIPOS>MOLECULE
MOL
   10    9    1    0    0
SMALL
bcc


@<TRIPOS>ATOM
   1   C1        0.6360    1.3470    0.4890   c3 1 MOL  0.1274
   2   C2        0.0250   -0.0490    0.2740   c3 1 MOL  0.1274
   3   O1        1.0580   -1.0030    0.0580   oh 1 MOL -0.6040
   4   O2       -0.2230    2.3421   -0.0553   oh 1 MOL -0.6040
   5   H1        0.7662    1.5364    1.5566   h1 1 MOL  0.0357
   6   H2        1.6085    1.4084   -0.0034   h1 1 MOL  0.0357
   7   H3       -0.6350   -0.0380   -0.5960   h1 1 MOL  0.0357
   8   H4       -0.5520   -0.3440    1.1540   h1 1 MOL  0.0357
   9   H5        0.5890   -1.8550   -0.0690   ho 1 MOL  0.4050
  10   H6        0.2341    3.1905    0.1223   ho 1 MOL  0.4050
@<TRIPOS>BOND
    1     1     2  1
    2     2     3  1
    3     1     4  1
    4     1     5  1
    5     1     6  1
    6     2     7  1
    7     2     8  1
    8     3     9  1
    9     4    10  1
@<TRIPOS>SUBSTRUCTURE
1 MOL         1 TEMP              0 ****  ****    0 ROOT

@<TRIPOS>MOLECULE
MOL
   10    9    1    0    0
SMALL
bcc


@<TRIPOS>ATOM
   1   C1        0.6360    1.3470    0.4890   c3 1 MOL  0.1274
   2   C2        0.0250   -0.0490    0.2740   c3 1 MOL  0.1274
   3   O1        1.0580   -1.0030    0.0580   oh 1 MOL -0.6040
   4   O2       -0.2339    2.3437   -0.0347   oh 1 MOL -0.6040
   5   H1        0.7827    1.5294    1.5557   h1 1 MOL  0.0357
   6   H2        1.6004    1.4142   -0.0183   h1 1 MOL  0.0357
   7   H3       -0.6350   -0.0380   -0.5960   h1 1 MOL  0.0357
   8   H4       -0.5520   -0.3440    1.1540   h1 1 MOL  0.0357
   9   H5        0.5890   -1.8550   -0.0690   ho 1 MOL  0.4050
  10   H6        0.2240    3.1920    0.1415   ho 1 MOL  0.4050
@<TRIPOS>BOND
    1     1     2  1
    2     2     3  1
    3     1     4  1
    4     1     5  1
    5     1     6  1
    6     2     7  1
    7     2     8  1
    8     3     9  1
    9     4    10  1
@<TRIPOS>SUBSTRUCTURE
1 MOL         1 TEMP              0 ****  ****    0 ROOT

@<TRIPOS>MOLECULE
MOL
   10    9    1    0    0
SMALL
bcc


@<TRIPOS>ATOM
   1   C1        0.6360    1.3470    0.4890   c3 1 MOL  0.1274
   2   C2        0.0250   -0.0490    0.2740   c3 1 MOL  0.1274
   3   O1        1.0580   -1.0030    0.0580   oh 1 MOL -0.6040
   4   O2       -0.2444    2.3451   -0.0139   oh 1 MOL -0.6040
   5   H1        0.7991    1.5224    1.5545   h1 1 MOL  0.0357
   6   H2        1.5921    1.4201   -0.0330   h1 1 MOL  0.0357
   7   H3       -0.6350   -0.0380   -0.5960   h1 1 MOL  0.0357
   8   H4       -0.5520   -0.3440    1.1540   h1 1 MOL  0.0357
   9   H5        0.5890   -1.8550   -0.0690   ho 1 MOL  0.4050
  10   H6        0.2141    3.1933    0.1609   ho 1 MOL  0.4050
@<TRIPOS>BOND
    1     1     2  1
    2     2     3  1
    3     1     4  1
    4     1     5  1
    5     1     6  1
    6     2     7  1
    7     2     8  1
    8     3     9  1
    9     4    10  1
@<TRIPOS>SUBSTRUCTURE
1 MOL         1 TEMP              0 ****  ****    0 ROOT

@<TRIPOS>MOLECULE
MOL
   10    9    1    0    0
SMALL
bcc


@<TRIPOS>ATOM
   1   C1        0.6360    1.3470    0.4890   c3 1 MOL  0.1274
   2   C2        0.0250   -0.0490    0.2740   c3 1 MOL  0.1274
   3   O1        1.0580   -1.0030    0.0580   oh 1 MOL -0.6040
   4   O2       -0.2547    2.3464    0.0070   oh 1 MOL -0.6040
   5   H1        0.8155    1.5154    1.5530   h1 1 MOL  0.0357
   6   H2        1.5836    1.4261   -0.0476   h1 1 MOL  0.0357
   7   H3       -0.6350   -0.0380   -0.5960   h1 1 MOL  0.0357
   8   H4       -0.5520   -0.3440    1.1540   h1 1 MOL  0.0357
   9   H5        0.5890   -1.8550   -0.0690   ho 1 MOL  0.4050
  10   H6        0.2046    3.1945    0.1804   ho 1 MOL  0.4050
@<TRIPOS>BOND
    1     1     2  1
    2     2     3  1
    3     1     4  1
    4     1     5  1
    5     1     6  1
    6     2     7  1
    7     2     8  1
    8     3     9  1
    9     4    10  1
@<TRIPOS>SUBSTRUCTURE
1 MOL         1 TEMP              0 ****  ****    0 ROOT

@<TRIPOS>MOLECULE
MOL
   10    9    1    0    0
SMALL
bcc


@<TRIPOS>ATOM
   1   C1        0.6360    1.3470    0.4890   c3 1 MOL  0.1274
   2   C2        0.0250   -0.0490    0.2740   c3 1 MOL  0.1274
   3   O1        1.0580   -1.0030    0.0580   oh 1 MOL -0.6040
   4   O2       -0.2646    2.3474    0.0281   oh 1 MOL -0.6040
   5   H1        0.8320    1.5085    1.5512   h1 1 MOL  0.0357
   6   H2        1.5748    1.4321   -0.0619   h1 1 MOL  0.0357
   7   H3       -0.6350   -0.0380   -0.5960   h1 1 MOL  0.0357
   8   H4       -0.5520   -0.3440    1.1540   h1 1 MOL  0.0357
   9   H5        0.5890   -1.8550   -0.0690   ho 1 MOL  0.4050
  10   H6        0.1954    3.1955    0.2002   ho 1 MOL  0.4050
@<TRIPOS>BOND
    1     1     2  1
    2     2     3  1
    3     1     4  1
    4     1     5  1
    5     1     6  1
    6     2     7  1
    7     2     8  1
    8     3     9  1
    9     4    10  1
@<TRIPOS>SUBSTRUCTURE
1 MOL         1 TEMP              0 ****  ****    0 ROOT

@<TRIPOS>MOLECULE
MOL
   10    9    1    0    0
SMALL
bcc


@<TRIPOS>ATOM
   1   C1        0.6360    1.3470    0.4890   c3 1 MOL  0.1274
   2   C2        0.0250   -0.0490    0.2740   c3 1 MOL  0.1274
   3   O1        1.0580   -1.0030    0.0580   oh 1 MOL -0.6040
   4   O2       -0.2741    2.3484    0.0494   oh 1 MOL -0.6040
   5   H1        0.8484    1.5017    1.5490   h1 1 MOL  0.0357
   6   H2        1.5657    1.4383   -0.0761   h1 1 MOL  0.0357
   7   H3       -0.6350   -0.0380   -0.5960   h1 1 MOL  0.0357
   8   H4       -0.5520   -0.3440    1.1540   h1 1 MOL  0.0357
   9   H5        0.5890   -1.8550   -0.0690   ho 1 MOL  0.4050
  10   H6        0.1864    3.1963    0.2200   ho 1 MOL  0.4050
@<TRIPOS>BOND
    1     1     2  1
    2     2     3  1
    3     1     4  1
    4     1     5  1
    5     1     6  1
    6     2     7  1
    7     2     8  1
    8     3     9  1
    9     4    10  1
@<TRIPOS>SUBSTRUCTURE
1 MOL         1 TEMP              0 ****  ****    0 ROOT

@<TRIPOS>MOLECULE
MOL
   10    9    1    0    0
SMALL
bcc


@<TRIPOS>ATOM
   1   C1        0.6360    1.3470    0.4890   c3 1 MOL  0.1274
   2   C2        0.0250   -0.0490    0.2740   c3 1 MOL  0.1274
   3   O1        1.0580   -1.0030    0.0580   oh 1 MOL -0.6040
   4   O2       -0.2834    2.3491    0.0708   oh 1 MOL -0.6040
   5   H1        0.8648    1.4949    1.5466   h1 1 MOL  0.0357
   6   H2        1.5564    1.4445   -0.0901   h1 1 MOL  0.0357
   7   H3       -0.6350   -0.0380   -0.5960   h1 1 MOL  0.0357
   8   H4       -0.5520   -0.3440    1.1540   h1 1 MOL  0.0357
   9   H5        0.5890   -1.8550   -0.0690   ho 1 MOL  0.4050
  10   H6        0.1778    3.1970    0.2400   ho 1 MOL  0.4050
@<TRIPOS>BOND
    1     1     2  1
    2     2     3  1
    3     1     4  1
    4     1     5  1
    5     1     6  1
    6     2     7  1
    7     2     8  1
    8     3     9  1
    9     4    10  1
@<TRIPOS>SUBSTRUCTURE
1 MOL         1 TEMP              0 ****  ****    0 ROOT

@<TRIPOS>MOLECULE
MOL
   10    9    1    0    0
SMALL
bcc


@<TRIPOS>ATOM
   1   C1        0.6360    1.3470    0.4890   c3 1 MOL  0.1274
   2   C2        0.0250   -0.0490    0.2740   c3 1 MOL  0.1274
   3   O1        1.0580   -1.0030    0.0580   oh 1 MOL -0.6040
   4   O2       -0.2923    2.3497    0.0924   oh 1 MOL -0.6040
   5   H1        0.8811    1.4881    1.5438   h1 1 MOL  0.0357
   6   H2        1.5469    1.4508   -0.1039   h1 1 MOL  0.0357
   7   H3       -0.6350   -0.0380   -0.5960   h1 1 MOL  0.0357
   8   H4       -0.5520   -0.3440    1.1540   h1 1 MOL  0.0357
   9   H5        0.5890   -1.8550   -0.0690   ho 1 MOL  0.4050
  10   H6        0.1695    3.1975    0.2602   ho 1 MOL  0.4050
@<TRIPOS>BOND
    1     1     2  1
    2     2     3  1
    3     1     4  1
    4     1     5  1
    5     1     6  1
    6     2     7  1
    7     2     8  1
    8     3     9  1
    9     4    10  1
@<TRIPOS>SUBSTRUCTURE
1 MOL         1 TEMP              0 ****  ****    0 ROOT

@<TRIPOS>MOLECULE
MOL
   10    9    1    0    0
SMALL
bcc


@<TRIPOS>ATOM
   1   C1        0.6360    1.3470    0.4890   c3 1 MOL  0.1274
   2   C2        0.0250   -0.0490    0.2740   c3 1 MOL  0.1274
   3   O1        1.0580   -1.0030    0.0580   oh 1 MOL -0.6040
   4   O2       -0.3008    2.3501    0.1141   oh 1 MOL -0.6040
   5   H1        0.8975    1.4814    1.5408   h1 1 MOL  0.0357
   6   H2        1.5371    1.4572   -0.1175   h1 1 MOL  0.0357
   7   H3       -0.6350   -0.0380   -0.5960   h1 1 MOL  0.0357
   8   H4       -0.5520   -0.3440    1.1540   h1 1 MOL  0.0357
   9   H5        0.5890   -1.8550   -0.0690   ho 1 MOL  0.4050
  10   H6        0.1616    3.1979    0.2804   ho 1 MOL  0.4050
@<TRIPOS>BOND
    1     1     2  1
    2     2     3  1
    3     1     4  1
    4     1     5  1
    5     1     6  1
    6     2     7  1
    7     2     8  1
    8     3     9  1
    9     4    10  1
@<TRIPOS>SUBSTRUCTURE
1 MOL         1 TEMP              0 ****  ****    0 ROOT

@<TRIPOS>MOLECULE
MOL
   10    9    1    0    0
SMALL
bcc


@<TRIPOS>ATOM
   1   C1        0.6360    1.3470    0.4890   c3 1 MOL  0.1274
   2   C2        0.0250   -0.0490    0.2740   c3 1 MOL  0.1274
   3   O1        1.0580   -1.0030    0.0580   oh 1 MOL -0.6040
   4   O2       -0.3090    2.3503    0.1359   oh 1 MOL -0.6040
   5   H1        0.9138    1.4748    1.5374   h1 1 MOL  0.0357
   6   H2        1.5272    1.4636   -0.1309   h1 1 MOL  0.0357
   7   H3       -0.6350   -0.0380   -0.5960   h1 1 MOL  0.0357
   8   H4       -0.5520   -0.3440    1.1540   h1 1 MOL  0.0357
   9   H5        0.5890   -1.8550   -0.0690   ho 1 MOL  0.4050
  10   H6        0.1539    3.1981    0.3008   ho 1 MOL  0.4050
@<TRIPOS>BOND
    1     1     2  1
    2     2     3  1
    3     1     4  1
    4     1     5  1
    5     1     6  1
    6     2     7  1
    7     2     8  1
    8     3     9  1
    9     4    10  1
@<TRIPOS>SUBSTRUCTURE
1 MOL         1 TEMP              0 ****  ****    0 ROOT

@<TRIPOS>MOLECULE
MOL
   10    9    1    0    0
SMALL
bcc


@<TRIPOS>ATOM
   1   C1        0.6360    1.3470    0.4890   c3 1 MOL  0.1274
   2   C2        0.0250   -0.0490    0.2740   c3 1 MOL  0.1274
   3   O1        1.0580   -1.0030    0.0580   oh 1 MOL -0.6040
   4   O2       -0.3169    2.3504    0.1579   oh 1 MOL -0.6040
   5   H1        0.9301    1.4683    1.5337   h1 1 MOL  0.0357
   6   H2        1.5169    1.4701   -0.1441   h1 1 MOL  0.0357
   7   H3       -0.6350   -0.0380   -0.5960   h1 1 MOL  0.0357
   8   H4       -0.5520   -0.3440    1.1540   h1 1 MOL  0.0357
   9   H5        0.5890   -1.8550   -0.0690   ho 1 MOL  0.4050
  10   H6        0.1466    3.1982    0.3213   ho 1 MOL  0.4050
@<TRIPOS>BOND
    1     1     2  1
    2     2     3  1
    3     1     4  1
    4     1     5  1
    5     1     6  1
    6     2     7  1
    7     2     8  1
    8     3     9  1
    9     4    10  1
@<TRIPOS>SUBSTRUCTURE
1 MOL         1 TEMP              0 ****  ****    0 ROOT

@<TRIPOS>MOLECULE
MOL
   10    9    1    0    0
SMALL
bcc


@<TRIPOS>ATOM
   1   C1        0.6360    1.3470    0.4890   c3 1 MOL  0.1274
   2   C2        0.0250   -0.0490    0.2740   c3 1 MOL  0.1274
   3   O1        1.0580   -1.0030    0.0580   oh 1 MOL -0.6040
   4   O2       -0.3244    2.3502    0.1800   oh 1 MOL -0.6040
   5   H1        0.9463    1.4618    1.5298   h1 1 MOL  0.0357
   6   H2        1.5065    1.4767   -0.1571   h1 1 MOL  0.0357
   7   H3       -0.6350   -0.0380   -0.5960   h1 1 MOL  0.0357
   8   H4       -0.5520   -0.3440    1.1540   h1 1 MOL  0.0357
   9   H5        0.5890   -1.8550   -0.0690   ho 1 MOL  0.4050
  10   H6        0.1396    3.1981    0.3420   ho 1 MOL  0.4050
@<TRIPOS>BOND
    1     1     2  1
    2     2     3  1
    3     1     4  1
    4     1     5  1
    5     1     6  1
    6     2     7  1
    7     2     8  1
    8     3     9  1
    9     4    10  1
@<TRIPOS>SUBSTRUCTURE
1 MOL         1 TEMP              0 ****  ****    0 ROOT

@<TRIPOS>MOLECULE
MOL
   10    9    1    0    0
SMALL
bcc


@<TRIPOS>ATOM
   1   C1        0.6360    1.3470    0.4890   c3 1 MOL  0.1274
   2   C2        0.0250   -0.0490    0.2740   c3 1 MOL  0.1274
   3   O1        1.0580   -1.0030    0.0580   oh 1 MOL -0.6040
   4   O2       -0.3316    2.3500    0.2022   oh 1 MOL -0.6040
   5   H1        0.9625    1.4554    1.5255   h1 1 MOL  0.0357
   6   H2        1.4959    1.4833   -0.1699   h1 1 MOL  0.0357
   7   H3       -0.6350   -0.0380   -0.5960   h1 1 MOL  0.0357
   8   H4       -0.5520   -0.3440    1.1540   h1 1 MOL  0.0357
   9   H5        0.5890   -1.8550   -0.0690   ho 1 MOL  0.4050
  10   H6        0.1329    3.1978    0.3627   ho 1 MOL  0.4050
@<TRIPOS>BOND
    1     1     2  1
    2     2     3  1
    3     1     4  1
    4     1     5  1
    5     1     6  1
    6     2     7  1
    7     2     8  1
    8     3     9  1
    9     4    10  1
@<TRIPOS>SUBSTRUCTURE
1 MOL         1 TEMP              0 ****  ****    0 ROOT

@<TRIPOS>MOLECULE
MOL
   10    9    1    0    0
SMALL
bcc


@<TRIPOS>ATOM
   1   C1        0.6360    1.3470    0.4890   c3 1 MOL  0.1274
   2   C2        0.0250   -0.0490    0.2740   c3 1 MOL  0.1274
   3   O1        1.0580   -1.0030    0.0580   oh 1 MOL -0.6040
   4   O2       -0.3384    2.3495    0.2245   oh 1 MOL -0.6040
   5   H1        0.9786    1.4490    1.5209   h1 1 MOL  0.0357
   6   H2        1.4850    1.4900   -0.1824   h1 1 MOL  0.0357
   7   H3       -0.6350   -0.0380   -0.5960   h1 1 MOL  0.0357
   8   H4       -0.5520   -0.3440    1.1540   h1 1 MOL  0.0357
   9   H5        0.5890   -1.8550   -0.0690   ho 1 MOL  0.4050
  10   H6        0.1266    3.1973    0.3836   ho 1 MOL  0.4050
@<TRIPOS>BOND
    1     1     2  1
    2     2     3  1
    3     1     4  1
    4     1     5  1
    5     1     6  1
    6     2     7  1
    7     2     8  1
    8     3     9  1
    9     4    10  1
@<TRIPOS>SUBSTRUCTURE
1 MOL         1 TEMP              0 ****  ****    0 ROOT

@<TRIPOS>MOLECULE
MOL
   10    9    1    0    0
SMALL
bcc


@<TRIPOS>ATOM
   1   C1        0.6360    1.3470    0.4890   c3 1 MOL  0.1274
   2   C2        0.0250   -0.0490    0.2740   c3 1 MOL  0.1274
   3   O1        1.0580   -1.0030    0.0580   oh 1 MOL -0.6040
   4   O2       -0.3448    2.3489    0.2470   oh 1 MOL -0.6040
   5   H1        0.9946    1.4427    1.5161   h1 1 MOL  0.0357
   6   H2        1.4739    1.4968   -0.1948   h1 1 MOL  0.0357
   7   H3       -0.6350   -0.0380   -0.5960   h1 1 MOL  0.0357
   8   H4       -0.5520   -0.3440    1.1540   h1 1 MOL  0.0357
   9   H5        0.5890   -1.8550   -0.0690   ho 1 MOL  0.4050
  10   H6        0.1205    3.1968    0.4045   ho 1 MOL  0.4050
@<TRIPOS>BOND
    1     1     2  1
    2     2     3  1
    3     1     4  1
    4     1     5  1
    5     1     6  1
    6     2     7  1
    7     2     8  1
    8     3     9  1
    9     4    10  1
@<TRIPOS>SUBSTRUCTURE
1 MOL         1 TEMP              0 ****  ****    0 ROOT

@<TRIPOS>MOLECULE
MOL
   10    9    1    0    0
SMALL
bcc


@<TRIPOS>ATOM
   1   C1        0.6360    1.3470    0.4890   c3 1 MOL  0.1274
   2   C2        0.0250   -0.0490    0.2740   c3 1 MOL  0.1274
   3   O1        1.0580   -1.0030    0.0580   oh 1 MOL -0.6040
   4   O2       -0.3509    2.3481    0.2695   oh 1 MOL -0.6040
   5   H1        1.0106    1.4365    1.5109   h1 1 MOL  0.0357
   6   H2        1.4626    1.5036   -0.2069   h1 1 MOL  0.0357
   7   H3       -0.6350   -0.0380   -0.5960   h1 1 MOL  0.0357
   8   H4       -0.5520   -0.3440    1.1540   h1 1 MOL  0.0357
   9   H5        0.5890   -1.8550   -0.0690   ho 1 MOL  0.4050
  10   H6        0.1149    3.1960    0.4255   ho 1 MOL  0.4050
@<TRIPOS>BOND
    1     1     2  1
    2     2     3  1
    3     1     4  1
    4     1     5  1
    5     1     6  1
    6     2     7  1
    7     2     8  1
    8     3     9  1
    9     4    10  1
@<TRIPOS>SUBSTRUCTURE
1 MOL         1 TEMP              0 ****  ****    0 ROOT

@<TRIPOS>MOLECULE
MOL
   10    9    1    0    0
SMALL
bcc


@<TRIPOS>ATOM
   1   C1        0.6360    1.3470    0.4890   c3 1 MOL  0.1274
   2   C2        0.0250   -0.0490    0.2740   c3 1 MOL  0.1274
   3   O1        1.0580   -1.0030    0.0580   oh 1 MOL -0.6040
   4   O2       -0.3566    2.3471    0.2921   oh 1 MOL -0.6040
   5   H1        1.0266    1.4304    1.5055   h1 1 MOL  0.0357
   6   H2        1.4511    1.5104   -0.2188   h1 1 MOL  0.0357
   7   H3       -0.6350   -0.0380   -0.5960   h1 1 MOL  0.0357
   8   H4       -0.5520   -0.3440    1.1540   h1 1 MOL  0.0357
   9   H5        0.5890   -1.8550   -0.0690   ho 1 MOL  0.4050
  10   H6        0.1095    3.1951    0.4466   ho 1 MOL  0.4050
@<TRIPOS>BOND
    1     1     2  1
    2     2     3  1
    3     1     4  1
    4     1     5  1
    5     1     6  1
    6     2     7  1
    7     2     8  1
    8     3     9  1
    9     4    10  1
@<TRIPOS>SUBSTRUCTURE
1 MOL         1 TEMP              0 ****  ****    0 ROOT

@<TRIPOS>MOLECULE
MOL
   10    9    1    0    0
SMALL
bcc


@<TRIPOS>ATOM
   1   C1        0.6360    1.3470    0.4890   c3 1 MOL  0.1274
   2   C2        0.0250   -0.0490    0.2740   c3 1 MOL  0.1274
   3   O1        1.0580   -1.0030    0.0580   oh 1 MOL -0.6040
   4   O2       -0.3620    2.3460    0.3148   oh 1 MOL -0.6040
   5   H1        1.0424    1.4243    1.4997   h1 1 MOL  0.0357
   6   H2        1.4394    1.5173   -0.2304   h1 1 MOL  0.0357
   7   H3       -0.6350   -0.0380   -0.5960   h1 1 MOL  0.0357
   8   H4       -0.5520   -0.3440    1.1540   h1 1 MOL  0.0357
   9   H5        0.5890   -1.8550   -0.0690   ho 1 MOL  0.4050
  10   H6        0.1045    3.1940    0.4678   ho 1 MOL  0.4050
@<TRIPOS>BOND
    1     1     2  1
    2     2     3  1
    3     1     4  1
    4     1     5  1
    5     1     6  1
    6     2     7  1
    7     2     8  1
    8     3     9  1
    9     4    10  1
@<TRIPOS>SUBSTRUCTURE
1 MOL         1 TEMP              0 ****  ****    0 ROOT

@<TRIPOS>MOLECULE
MOL
   10    9    1    0    0
SMALL
bcc


@<TRIPOS>ATOM
   1   C1        0.6360    1.3470    0.4890   c3 1 MOL  0.1274
   2   C2        0.0250   -0.0490    0.2740   c3 1 MOL  0.1274
   3   O1        1.0580   -1.0030    0.0580   oh 1 MOL -0.6040
   4   O2       -0.3670    2.3446    0.3375   oh 1 MOL -0.6040
   5   H1        1.0582    1.4184    1.4937   h1 1 MOL  0.0357
   6   H2        1.4275    1.5243   -0.2418   h1 1 MOL  0.0357
   7   H3       -0.6350   -0.0380   -0.5960   h1 1 MOL  0.0357
   8   H4       -0.5520   -0.3440    1.1540   h1 1 MOL  0.0357
   9   H5        0.5890   -1.8550   -0.0690   ho 1 MOL  0.4050
  10   H6        0.0998    3.1928    0.4890   ho 1 MOL  0.4050
@<TRIPOS>BOND
    1     1     2  1
    2     2     3  1
    3     1     4  1
    4     1     5  1
    5     1     6  1
    6     2     7  1
    7     2     8  1
    8     3     9  1
    9     4    10  1
@<TRIPOS>SUBSTRUCTURE
1 MOL         1 TEMP              0 ****  ****    0 ROOT

@<TRIPOS>MOLECULE
MOL
   10    9    1    0    0
SMALL
bcc


@<TRIPOS>ATOM
   1   C1        0.6360    1.3470    0.4890   c3 1 MOL  0.1274
   2   C2        0.0250   -0.0490    0.2740   c3 1 MOL  0.1274
   3   O1        1.0580   -1.0030    0.0580   oh 1 MOL -0.6040
   4   O2       -0.3717    2.3432    0.3604   oh 1 MOL -0.6040
   5   H1        1.0739    1.4125    1.4873   h1 1 MOL  0.0357
   6   H2        1.4154    1.5313   -0.2530   h1 1 MOL  0.0357
   7   H3       -0.6350   -0.0380   -0.5960   h1 1 MOL  0.0357
   8   H4       -0.5520   -0.3440    1.1540   h1 1 MOL  0.0357
   9   H5        0.5890   -1.8550   -0.0690   ho 1 MOL  0.4050
  10   H6        0.0955    3.1914    0.5103   ho 1 MOL  0.4050
@<TRIPOS>BOND
    1     1     2  1
    2     2     3  1
    3     1     4  1
    4     1     5  1
    5     1     6  1
    6     2     7  1
    7     2     8  1
    8     3     9  1
    9     4    10  1
@<TRIPOS>SUBSTRUCTURE
1 MOL         1 TEMP              0 ****  ****    0 ROOT

@<TRIPOS>MOLECULE
MOL
   10    9    1    0    0
SMALL
bcc


@<TRIPOS>ATOM
   1   C1        0.6360    1.3470    0.4890   c3 1 MOL  0.1274
   2   C2        0.0250   -0.0490    0.2740   c3 1 MOL  0.1274
   3   O1        1.0580   -1.0030    0.0580   oh 1 MOL -0.6040
   4   O2       -0.3760    2.3415    0.3832   oh 1 MOL -0.6040
   5   H1        1.0895    1.4067    1.4807   h1 1 MOL  0.0357
   6   H2        1.4031    1.5384   -0.2640   h1 1 MOL  0.0357
   7   H3       -0.6350   -0.0380   -0.5960   h1 1 MOL  0.0357
   8   H4       -0.5520   -0.3440    1.1540   h1 1 MOL  0.0357
   9   H5        0.5890   -1.8550   -0.0690   ho 1 MOL  0.4050
  10   H6        0.0915    3.1899    0.5317   ho 1 MOL  0.4050
@<TRIPOS>BOND
    1     1     2  1
    2     2     3  1
    3     1     4  1
    4     1     5  1
    5     1     6  1
    6     2     7  1
    7     2     8  1
    8     3     9  1
    9     4    10  1
@<TRIPOS>SUBSTRUCTURE
1 MOL         1 TEMP              0 ****  ****    0 ROOT

@<TRIPOS>MOLECULE
MOL
   10    9    1    0    0
SMALL
bcc


@<TRIPOS>ATOM
   1   C1        0.6360    1.3470    0.4890   c3 1 MOL  0.1274
   2   C2        0.0250   -0.0490    0.2740   c3 1 MOL  0.1274
   3   O1        1.0580   -1.0030    0.0580   oh 1 MOL -0.6040
   4   O2       -0.3799    2.3397    0.4062   oh 1 MOL -0.6040
   5   H1        1.1050    1.4009    1.4738   h1 1 MOL  0.0357
   6   H2        1.3906    1.5455   -0.2747   h1 1 MOL  0.0357
   7   H3       -0.6350   -0.0380   -0.5960   h1 1 MOL  0.0357
   8   H4       -0.5520   -0.3440    1.1540   h1 1 MOL  0.0357
   9   H5        0.5890   -1.8550   -0.0690   ho 1 MOL  0.4050
  10   H6        0.0879    3.1882    0.5531   ho 1 MOL  0.4050
@<TRIPOS>BOND
    1     1     2  1
    2     2     3  1
    3     1     4  1
    4     1     5  1
    5     1     6  1
    6     2     7  1
    7     2     8  1
    8     3     9  1
    9     4    10  1
@<TRIPOS>SUBSTRUCTURE
1 MOL         1 TEMP              0 ****  ****    0 ROOT

@<TRIPOS>MOLECULE
MOL
   10    9    1    0    0
SMALL
bcc


@<TRIPOS>ATOM
   1   C1        0.6360    1.3470    0.4890   c3 1 MOL  0.1274
   2   C2        0.0250   -0.0490    0.2740   c3 1 MOL  0.1274
   3   O1        1.0580   -1.0030    0.0580   oh 1 MOL -0.6040
   4   O2       -0.3834    2.3377    0.4292   oh 1 MOL -0.6040
   5   H1        1.1204    1.3953    1.4666   h1 1 MOL  0.0357
   6   H2        1.3780    1.5527   -0.2851   h1 1 MOL  0.0357
   7   H3       -0.6350   -0.0380   -0.5960   h1 1 MOL  0.0357
   8   H4       -0.5520   -0.3440    1.1540   h1 1 MOL  0.0357
   9   H5        0.5890   -1.8550   -0.0690   ho 1 MOL  0.4050
  10   H6        0.0846    3.1863    0.5746   ho 1 MOL  0.4050
@<TRIPOS>BOND
    1     1     2  1
    2     2     3  1
    3     1     4  1
    4     1     5  1
    5     1     6  1
    6     2     7  1
    7     2     8  1
    8     3     9  1
    9     4    10  1
@<TRIPOS>SUBSTRUCTURE
1 MOL         1 TEMP              0 ****  ****    0 ROOT

@<TRIPOS>MOLECULE
MOL
   10    9    1    0    0
SMALL
bcc


@<TRIPOS>ATOM
   1   C1        0.6360    1.3470    0.4890   c3 1 MOL  0.1274
   2   C2        0.0250   -0.0490    0.2740   c3 1 MOL  0.1274
   3   O1        1.0580   -1.0030    0.0580   oh 1 MOL -0.6040
   4   O2       -0.3866    2.3355    0.4522   oh 1 MOL -0.6040
   5   H1        1.1357    1.3898    1.4591   h1 1 MOL  0.0357
   6   H2        1.3651    1.5599   -0.2953   h1 1 MOL  0.0357
   7   H3       -0.6350   -0.0380   -0.5960   h1 1 MOL  0.0357
   8   H4       -0.5520   -0.3440    1.1540   h1 1 MOL  0.0357
   9   H5        0.5890   -1.8550   -0.0690   ho 1 MOL  0.4050
  10   H6        0.0816    3.1843    0.5961   ho 1 MOL  0.4050
@<TRIPOS>BOND
    1     1     2  1
    2     2     3  1
    3     1     4  1
    4     1     5  1
    5     1     6  1
    6     2     7  1
    7     2     8  1
    8     3     9  1
    9     4    10  1
@<TRIPOS>SUBSTRUCTURE
1 MOL         1 TEMP              0 ****  ****    0 ROOT

@<TRIPOS>MOLECULE
MOL
   10    9    1    0    0
SMALL
bcc


@<TRIPOS>ATOM
   1   C1        0.6360    1.3470    0.4890   c3 1 MOL  0.1274
   2   C2        0.0250   -0.0490    0.2740   c3 1 MOL  0.1274
   3   O1        1.0580   -1.0030    0.0580   oh 1 MOL -0.6040
   4   O2       -0.3894    2.3332    0.4752   oh 1 MOL -0.6040
   5   H1        1.1509    1.3843    1.4514   h1 1 MOL  0.0357
   6   H2        1.3521    1.5671   -0.3052   h1 1 MOL  0.0357
   7   H3       -0.6350   -0.0380   -0.5960   h1 1 MOL  0.0357
   8   H4       -0.5520   -0.3440    1.1540   h1 1 MOL  0.0357
   9   H5        0.5890   -1.8550   -0.0690   ho 1 MOL  0.4050
  10   H6        0.0790    3.1821    0.6176   ho 1 MOL  0.4050
@<TRIPOS>BOND
    1     1     2  1
    2     2     3  1
    3     1     4  1
    4     1     5  1
    5     1     6  1
    6     2     7  1
    7     2     8  1
    8     3     9  1
    9     4    10  1
@<TRIPOS>SUBSTRUCTURE
1 MOL         1 TEMP              0 ****  ****    0 ROOT

@<TRIPOS>MOLECULE
MOL
   10    9    1    0    0
SMALL
bcc


@<TRIPOS>ATOM
   1   C1        0.6360    1.3470    0.4890   c3 1 MOL  0.1274
   2   C2        0.0250   -0.0490    0.2740   c3 1 MOL  0.1274
   3   O1        1.0580   -1.0030    0.0580   oh 1 MOL -0.6040
   4   O2       -0.3919    2.3307    0.4983   oh 1 MOL -0.6040
   5   H1        1.1660    1.3789    1.4433   h1 1 MOL  0.0357
   6   H2        1.3389    1.5743   -0.3149   h1 1 MOL  0.0357
   7   H3       -0.6350   -0.0380   -0.5960   h1 1 MOL  0.0357
   8   H4       -0.5520   -0.3440    1.1540   h1 1 MOL  0.0357
   9   H5        0.5890   -1.8550   -0.0690   ho 1 MOL  0.4050
  10   H6        0.0767    3.1798    0.6391   ho 1 MOL  0.4050
@<TRIPOS>BOND
    1     1     2  1
    2     2     3  1
    3     1     4  1
    4     1     5  1
    5     1     6  1
    6     2     7  1
    7     2     8  1
    8     3     9  1
    9     4    10  1
@<TRIPOS>SUBSTRUCTURE
1 MOL         1 TEMP              0 ****  ****    0 ROOT

@<TRIPOS>MOLECULE
MOL
   10    9    1    0    0
SMALL
bcc


@<TRIPOS>ATOM
   1   C1        0.6360    1.3470    0.4890   c3 1 MOL  0.1274
   2   C2        0.0250   -0.0490    0.2740   c3 1 MOL  0.1274
   3   O1        1.0580   -1.0030    0.0580   oh 1 MOL -0.6040
   4   O2       -0.3939    2.3281    0.5214   oh 1 MOL -0.6040
   5   H1        1.1810    1.3737    1.4350   h1 1 MOL  0.0357
   6   H2        1.3255    1.5817   -0.3243   h1 1 MOL  0.0357
   7   H3       -0.6350   -0.0380   -0.5960   h1 1 MOL  0.0357
   8   H4       -0.5520   -0.3440    1.1540   h1 1 MOL  0.0357
   9   H5        0.5890   -1.8550   -0.0690   ho 1 MOL  0.4050
  10   H6        0.0748    3.1773    0.6607   ho 1 MOL  0.4050
@<TRIPOS>BOND
    1     1     2  1
    2     2     3  1
    3     1     4  1
    4     1     5  1
    5     1     6  1
    6     2     7  1
    7     2     8  1
    8     3     9  1
    9     4    10  1
@<TRIPOS>SUBSTRUCTURE
1 MOL         1 TEMP              0 ****  ****    0 ROOT

@<TRIPOS>MOLECULE
MOL
   10    9    1    0    0
SMALL
bcc


@<TRIPOS>ATOM
   1   C1        0.6360    1.3470    0.4890   c3 1 MOL  0.1274
   2   C2        0.0250   -0.0490    0.2740   c3 1 MOL  0.1274
   3   O1        1.0580   -1.0030    0.0580   oh 1 MOL -0.6040
   4   O2       -0.3956    2.3253    0.5445   oh 1 MOL -0.6040
   5   H1        1.1958    1.3685    1.4265   h1 1 MOL  0.0357
   6   H2        1.3120    1.5890   -0.3335   h1 1 MOL  0.0357
   7   H3       -0.6350   -0.0380   -0.5960   h1 1 MOL  0.0357
   8   H4       -0.5520   -0.3440    1.1540   h1 1 MOL  0.0357
   9   H5        0.5890   -1.8550   -0.0690   ho 1 MOL  0.4050
  10   H6        0.0732    3.1747    0.6823   ho 1 MOL  0.4050
@<TRIPOS>BOND
    1     1     2  1
    2     2     3  1
    3     1     4  1
    4     1     5  1
    5     1     6  1
    6     2     7  1
    7     2     8  1
    8     3     9  1
    9     4    10  1
@<TRIPOS>SUBSTRUCTURE
1 MOL         1 TEMP              0 ****  ****    0 ROOT

@<TRIPOS>MOLECULE
MOL
   10    9    1    0    0
SMALL
bcc


@<TRIPOS>ATOM
   1   C1        0.6360    1.3470    0.4890   c3 1 MOL  0.1274
   2   C2        0.0250   -0.0490    0.2740   c3 1 MOL  0.1274
   3   O1        1.0580   -1.0030    0.0580   oh 1 MOL -0.6040
   4   O2       -0.3969    2.3223    0.5676   oh 1 MOL -0.6040
   5   H1        1.2105    1.3634    1.4176   h1 1 MOL  0.0357
   6   H2        1.2983    1.5963   -0.3424   h1 1 MOL  0.0357
   7   H3       -0.6350   -0.0380   -0.5960   h1 1 MOL  0.0357
   8   H4       -0.5520   -0.3440    1.1540   h1 1 MOL  0.0357
   9   H5        0.5890   -1.8550   -0.0690   ho 1 MOL  0.4050
  10   H6        0.0720    3.1719    0.7038   ho 1 MOL  0.4050
@<TRIPOS>BOND
    1     1     2  1
    2     2     3  1
    3     1     4  1
    4     1     5  1
    5     1     6  1
    6     2     7  1
    7     2     8  1
    8     3     9  1
    9     4    10  1
@<TRIPOS>SUBSTRUCTURE
1 MOL         1 TEMP              0 ****  ****    0 ROOT

@<TRIPOS>MOLECULE
MOL
   10    9    1    0    0
SMALL
bcc


@<TRIPOS>ATOM
   1   C1        0.6360    1.3470    0.4890   c3 1 MOL  0.1274
   2   C2        0.0250   -0.0490    0.2740   c3 1 MOL  0.1274
   3   O1        1.0580   -1.0030    0.0580   oh 1 MOL -0.6040
   4   O2       -0.3979    2.3191    0.5908   oh 1 MOL -0.6040
   5   H1        1.2251    1.3584    1.4085   h1 1 MOL  0.0357
   6   H2        1.2844    1.6037   -0.3510   h1 1 MOL  0.0357
   7   H3       -0.6350   -0.0380   -0.5960   h1 1 MOL  0.0357
   8   H4       -0.5520   -0.3440    1.1540   h1 1 MOL  0.0357
   9   H5        0.5890   -1.8550   -0.0690   ho 1 MOL  0.4050
  10   H6        0.0711    3.1689    0.7254   ho 1 MOL  0.4050
@<TRIPOS>BOND
    1     1     2  1
    2     2     3  1
    3     1     4  1
    4     1     5  1
    5     1     6  1
    6     2     7  1
    7     2     8  1
    8     3     9  1
    9     4    10  1
@<TRIPOS>SUBSTRUCTURE
1 MOL         1 TEMP              0 ****  ****    0 ROOT

@<TRIPOS>MOLECULE
MOL
   10    9    1    0    0
SMALL
bcc


@<TRIPOS>ATOM
   1   C1        0.6360    1.3470    0.4890   c3 1 MOL  0.1274
   2   C2        0.0250   -0.0490    0.2740   c3 1 MOL  0.1274
   3   O1        1.0580   -1.0030    0.0580   oh 1 MOL -0.6040
   4   O2       -0.3984    2.3158    0.6139   oh 1 MOL -0.6040
   5   H1        1.2396    1.3535    1.3991   h1 1 MOL  0.0357
   6   H2        1.2704    1.6111   -0.3594   h1 1 MOL  0.0357
   7   H3       -0.6350   -0.0380   -0.5960   h1 1 MOL  0.0357
   8   H4       -0.5520   -0.3440    1.1540   h1 1 MOL  0.0357
   9   H5        0.5890   -1.8550   -0.0690   ho 1 MOL  0.4050
  10   H6        0.0706    3.1659    0.7470   ho 1 MOL  0.4050
@<TRIPOS>BOND
    1     1     2  1
    2     2     3  1
    3     1     4  1
    4     1     5  1
    5     1     6  1
    6     2     7  1
    7     2     8  1
    8     3     9  1
    9     4    10  1
@<TRIPOS>SUBSTRUCTURE
1 MOL         1 TEMP              0 ****  ****    0 ROOT

@<TRIPOS>MOLECULE
MOL
   10    9    1    0    0
SMALL
bcc


@<TRIPOS>ATOM
   1   C1        0.6360    1.3470    0.4890   c3 1 MOL  0.1274
   2   C2        0.0250   -0.0490    0.2740   c3 1 MOL  0.1274
   3   O1        1.0580   -1.0030    0.0580   oh 1 MOL -0.6040
   4   O2       -0.3986    2.3124    0.6369   oh 1 MOL -0.6040
   5   H1        1.2539    1.3487    1.3895   h1 1 MOL  0.0357
   6   H2        1.2563    1.6186   -0.3674   h1 1 MOL  0.0357
   7   H3       -0.6350   -0.0380   -0.5960   h1 1 MOL  0.0357
   8   H4       -0.5520   -0.3440    1.1540   h1 1 MOL  0.0357
   9   H5        0.5890   -1.8550   -0.0690   ho 1 MOL  0.4050
  10   H6        0.0704    3.1626    0.7685   ho 1 MOL  0.4050
@<TRIPOS>BOND
    1     1     2  1
    2     2     3  1
    3     1     4  1
    4     1     5  1
    5     1     6  1
    6     2     7  1
    7     2     8  1
    8     3     9  1
    9     4    10  1
@<TRIPOS>SUBSTRUCTURE
1 MOL         1 TEMP              0 ****  ****    0 ROOT

@<TRIPOS>MOLECULE
MOL
   10    9    1    0    0
SMALL
bcc


@<TRIPOS>ATOM
   1   C1        0.6360    1.3470    0.4890   c3 1 MOL  0.1274
   2   C2        0.0250   -0.0490    0.2740   c3 1 MOL  0.1274
   3   O1        1.0580   -1.0030    0.0580   oh 1 MOL -0.6040
   4   O2       -0.3985    2.3087    0.6600   oh 1 MOL -0.6040
   5   H1        1.2681    1.3441    1.3796   h1 1 MOL  0.0357
   6   H2        1.2420    1.6260   -0.3752   h1 1 MOL  0.0357
   7   H3       -0.6350   -0.0380   -0.5960   h1 1 MOL  0.0357
   8   H4       -0.5520   -0.3440    1.1540   h1 1 MOL  0.0357
   9   H5        0.5890   -1.8550   -0.0690   ho 1 MOL  0.4050
  10   H6        0.0706    3.1592    0.7900   ho 1 MOL  0.4050
@<TRIPOS>BOND
    1     1     2  1
    2     2     3  1
    3     1     4  1
    4     1     5  1
    5     1     6  1
    6     2     7  1
    7     2     8  1
    8     3     9  1
    9     4    10  1
@<TRIPOS>SUBSTRUCTURE
1 MOL         1 TEMP              0 ****  ****    0 ROOT

@<TRIPOS>MOLECULE
MOL
   10    9    1    0    0
SMALL
bcc


@<TRIPOS>ATOM
   1   C1        0.6360    1.3470    0.4890   c3 1 MOL  0.1274
   2   C2        0.0250   -0.0490    0.2740   c3 1 MOL  0.1274
   3   O1        1.0580   -1.0030    0.0580   oh 1 MOL -0.6040
   4   O2       -0.3979    2.3050    0.6830   oh 1 MOL -0.6040
   5   H1        1.2821    1.3395    1.3694   h1 1 MOL  0.0357
   6   H2        1.2276    1.6335   -0.3828   h1 1 MOL  0.0357
   7   H3       -0.6350   -0.0380   -0.5960   h1 1 MOL  0.0357
   8   H4       -0.5520   -0.3440    1.1540   h1 1 MOL  0.0357
   9   H5        0.5890   -1.8550   -0.0690   ho 1 MOL  0.4050
  10   H6        0.0711    3.1557    0.8115   ho 1 MOL  0.4050
@<TRIPOS>BOND
    1     1     2  1
    2     2     3  1
    3     1     4  1
    4     1     5  1
    5     1     6  1
    6     2     7  1
    7     2     8  1
    8     3     9  1
    9     4    10  1
@<TRIPOS>SUBSTRUCTURE
1 MOL         1 TEMP              0 ****  ****    0 ROOT

@<TRIPOS>MOLECULE
MOL
   10    9    1    0    0
SMALL
bcc


@<TRIPOS>ATOM
   1   C1        0.6360    1.3470    0.4890   c3 1 MOL  0.1274
   2   C2        0.0250   -0.0490    0.2740   c3 1 MOL  0.1274
   3   O1        1.0580   -1.0030    0.0580   oh 1 MOL -0.6040
   4   O2       -0.3970    2.3010    0.7060   oh 1 MOL -0.6040
   5   H1        1.2960    1.3350    1.3590   h1 1 MOL  0.0357
   6   H2        1.2130    1.6410   -0.3900   h1 1 MOL  0.0357
   7   H3       -0.6350   -0.0380   -0.5960   h1 1 MOL  0.0357
   8   H4       -0.5520   -0.3440    1.1540   h1 1 MOL  0.0357
   9   H5        0.5890   -1.8550   -0.0690   ho 1 MOL  0.4050
  10   H6        0.0720    3.1520    0.8330   ho 1 MOL  0.4050
@<TRIPOS>BOND
    1     1     2  1
    2     2     3  1
    3     1     4  1
    4     1     5  1
    5     1     6  1
    6     2     7  1
    7     2     8  1
    8     3     9  1
    9     4    10  1
@<TRIPOS>SUBSTRUCTURE
1 MOL         1 TEMP              0 ****  ****    0 ROOT

