@<TRIPOS>MOLECULE
MOL
   10    9    1    0    0
SMALL
bcc


@<TRIPOS>ATOM
   1   C1        0.6360    1.3470    0.4890   c3 1 MOL  0.1274
   2   C2        0.0250   -0.0490    0.2740   c3 1 MOL  0.1274
   3   O1       -1.1962    0.0614   -0.4474   oh 1 MOL -0.6040
   4   O2       -0.3970    2.3010    0.7060   oh 1 MOL -0.6040
   5   H1        1.2960    1.3350    1.3590   h1 1 MOL  0.0357
   6   H2        1.2130    1.6410   -0.3900   h1 1 MOL  0.0357
   7   H3       -0.1742   -0.5221    1.2379   h1 1 MOL  0.0357
   8   H4        0.7168   -0.6764   -0.2936   h1 1 MOL  0.0357
   9   H5       -1.5161   -0.8611   -0.5402   ho 1 MOL  0.4050
  10   H6        0.0720    3.1520    0.8330   ho 1 MOL  0.4050
@<TRIPOS>BOND
    1     1     2  1
    2     2     3  1
    3     1     4  1
    4     1     5  1
    5     1     6  1
    6     2     7  1
    7     2     8  1
    8     3     9  1
    9     4    10  1
@<TRIPOS>SUBSTRUCTURE
1 MOL         1 TEMP              0 ****  ****    0 ROOT
