@<TRIPOS>MOLECULE
MOL
   10    9    1    0    0
SMALL
bcc


@<TRIPOS>ATOM
   1   C1        0.6360    1.3470    0.4890   c3 1 MOL  0.1274
   2   C2        0.0250   -0.0490    0.2740   c3 1 MOL  0.1274
   3   O1        1.0325   -1.0450    0.4036   oh 1 MOL -0.6040
   4   O2       -0.3970    2.3010    0.7060   oh 1 MOL -0.6040
   5   H1        1.2960    1.3350    1.3590   h1 1 MOL  0.0357
   6   H2        1.2130    1.6410   -0.3900   h1 1 MOL  0.0357
   7   H3       -0.4129   -0.1155   -0.7242   h1 1 MOL  0.0357
   8   H4       -0.7547   -0.2342    1.0171   h1 1 MOL  0.0357
   9   H5        0.5652   -1.8943    0.2537   ho 1 MOL  0.4050
  10   H6        0.0720    3.1520    0.8330   ho 1 MOL  0.4050
@<TRIPOS>BOND
    1     1     2  1
    2     2     3  1
    3     1     4  1
    4     1     5  1
    5     1     6  1
    6     2     7  1
    7     2     8  1
    8     3     9  1
    9     4    10  1
@<TRIPOS>SUBSTRUCTURE
1 MOL         1 TEMP              0 ****  ****    0 ROOT
