@<TRIPOS>MOLECULE
ZINC03814360
   51    54     0     0     0
SMALL
USER_CHARGES

@<TRIPOS>ATOM
      1 C1         -0.0791    1.5267   -0.0241 C.3       1 <0>        -0.1536
      2 C2         -0.0620   -0.0032   -0.0340 C.3       1 <0>        -0.0506
      3 C3         -1.4996   -0.5307   -0.0608 C.3       1 <0>        -0.1074
      4 C4         -2.2727    0.0180    1.1418 C.3       1 <0>        -0.1722
      5 C5         -1.5107   -0.3367    2.3997 C.2       1 <0>         0.3611
      6 O1         -2.0584   -0.8912    3.3222 O.2       1 <0>        -0.4588
      7 C6         -0.0437    0.0225    2.4684 C.3       1 <0>        -0.1686
      8 C7          0.6550   -0.5142    1.2167 C.3       1 <0>        -0.0671
      9 H1          0.6353   -1.6039    1.2286 H         1 <0>         0.0748
     10 C8          2.1047   -0.0227    1.2198 C.3       1 <0>        -0.1157
     11 C9          2.8251   -0.5267   -0.0312 C.3       1 <0>        -0.1139
     12 C10         2.1153    0.0158   -1.2732 C.3       1 <0>        -0.0745
     13 H2          2.1230    1.1057   -1.2595 H         1 <0>         0.0857
     14 C11         0.6681   -0.4981   -1.2845 C.3       1 <0>        -0.0669
     15 H3          0.6802   -1.5880   -1.2755 H         1 <0>         0.0665
     16 C12        -0.0757   -0.0424   -2.5353 C.3       1 <0>        -0.1208
     17 C13         0.6746   -0.4510   -3.8142 C.3       1 <0>        -0.1028
     18 C14         2.0633    0.1522   -3.7349 C.3       1 <0>        -0.0579
     19 C15         2.7956   -0.4911   -2.5311 C.3       1 <0>        -0.0829
     20 H4          2.7257   -1.5774   -2.5882 H         1 <0>         0.0740
     21 C16         4.2385   -0.0216   -2.7472 C.3       1 <0>        -0.1123
     22 C17         4.4269   -0.1743   -4.2813 C.3       1 <0>        -0.1563
     23 C18         2.9990   -0.1352   -4.9046 C.3       1 <0>         0.1094
     24 H5          2.7384   -1.0847   -5.3722 H         1 <0>         0.0589
     25 O2          2.9342    0.9236   -5.8621 O.3       1 <0>        -0.5616
     26 C19         1.9594    1.6627   -3.5144 C.3       1 <0>        -0.1341
     27 H6          0.9444    1.9014   -0.0139 H         1 <0>         0.0641
     28 H7         -0.5902    1.8901   -0.9156 H         1 <0>         0.0611
     29 H8         -0.6037    1.8784    0.8642 H         1 <0>         0.0573
     30 H9         -1.9865   -0.2101   -0.9818 H         1 <0>         0.0807
     31 H10        -1.4873   -1.6197   -0.0178 H         1 <0>         0.0666
     32 H11        -2.3605    1.1013    1.0588 H         1 <0>         0.1007
     33 H12        -3.2658   -0.4300    1.1754 H         1 <0>         0.0872
     34 H13         0.0655    1.1062    2.5100 H         1 <0>         0.1009
     35 H14         0.4010   -0.4260    3.3568 H         1 <0>         0.0876
     36 H15         2.1179    1.0672    1.2312 H         1 <0>         0.0681
     37 H16         2.6132   -0.3995    2.1072 H         1 <0>         0.0638
     38 H17         3.8582   -0.1792   -0.0214 H         1 <0>         0.0647
     39 H18         2.8066   -1.6164   -0.0480 H         1 <0>         0.0614
     40 H19        -1.0679   -0.4936   -2.5445 H         1 <0>         0.0641
     41 H20        -0.1788    1.0425   -2.5135 H         1 <0>         0.0717
     42 H21         0.7449   -1.5372   -3.8719 H         1 <0>         0.0611
     43 H22         0.1524   -0.0653   -4.6898 H         1 <0>         0.0656
     44 H23         4.3545    1.0195   -2.4460 H         1 <0>         0.0703
     45 H24         4.9371   -0.6606   -2.2072 H         1 <0>         0.0656
     46 H25         5.0422    0.6392   -4.6655 H         1 <0>         0.0735
     47 H26         4.8913   -1.1342   -4.5074 H         1 <0>         0.0642
     48 H27         3.5088    0.7959   -6.6293 H         1 <0>         0.3748
     49 H28         1.3664    1.8595   -2.6213 H         1 <0>         0.0609
     50 H29         2.9579    2.0808   -3.3871 H         1 <0>         0.0533
     51 H30         1.4798    2.1237   -4.3779 H         1 <0>         0.0585
@<TRIPOS>BOND
     1    1    2 1
     2    1   27 1
     3    1   28 1
     4    1   29 1
     5    2    8 1
     6    2   14 1
     7    2    3 1
     8    3    4 1
     9    3   30 1
    10    3   31 1
    11    4    5 1
    12    4   32 1
    13    4   33 1
    14    5    6 2
    15    5    7 1
    16    7    8 1
    17    7   34 1
    18    7   35 1
    19    8    9 1
    20    8   10 1
    21   10   11 1
    22   10   36 1
    23   10   37 1
    24   11   12 1
    25   11   38 1
    26   11   39 1
    27   12   13 1
    28   12   19 1
    29   12   14 1
    30   14   15 1
    31   14   16 1
    32   16   17 1
    33   16   40 1
    34   16   41 1
    35   17   18 1
    36   17   42 1
    37   17   43 1
    38   18   23 1
    39   18   19 1
    40   18   26 1
    41   19   20 1
    42   19   21 1
    43   21   22 1
    44   21   44 1
    45   21   45 1
    46   22   23 1
    47   22   46 1
    48   22   47 1
    49   23   24 1
    50   23   25 1
    51   25   48 1
    52   26   49 1
    53   26   50 1
    54   26   51 1
