@<TRIPOS>MOLECULE
ZINC03814422
   52    55     0     0     0
SMALL
USER_CHARGES

@<TRIPOS>ATOM
      1 C1         -0.1004    1.5252   -0.0424 C.3       1 <0>        -0.1559
      2 C2         -0.0873   -0.0047   -0.0558 C.3       1 <0>        -0.0297
      3 C3         -1.5229   -0.4525   -0.1819 C.3       1 <0>        -0.1108
      4 C4         -1.7682   -1.8077    0.4808 C.3       1 <0>        -0.1662
      5 C5         -1.3095   -1.7025    1.9229 C.2       1 <0>         0.3881
      6 O1         -2.0263   -2.0191    2.8492 O.2       1 <0>        -0.4578
      7 C6          0.0537   -1.1954    2.1328 C.2       1 <0>        -0.2420
      8 C7          0.6146   -0.4408    1.1926 C.2       1 <0>        -0.0202
      9 C8          2.0594   -0.0056    1.3703 C.3       1 <0>        -0.0971
     10 C9          2.8299   -0.4253    0.1133 C.3       1 <0>        -0.1115
     11 C10         2.1548    0.1548   -1.1298 C.3       1 <0>        -0.0803
     12 H1          2.1008    1.2402   -1.0447 H         1 <0>         0.0895
     13 C11         0.7372   -0.4241   -1.2738 C.3       1 <0>        -0.0630
     14 H2          0.7954   -1.5119   -1.3108 H         1 <0>         0.0710
     15 C12         0.0557    0.0696   -2.5462 C.3       1 <0>        -0.1244
     16 C13         0.9109   -0.2098   -3.7925 C.3       1 <0>        -0.1020
     17 C14         2.2511    0.4669   -3.5782 C.3       1 <0>        -0.0490
     18 C15         2.9419   -0.2213   -2.3716 C.3       1 <0>        -0.0820
     19 H3          2.9388   -1.3026   -2.5091 H         1 <0>         0.0754
     20 C16         4.3665    0.3385   -2.4528 C.3       1 <0>        -0.1130
     21 C17         4.6646    0.3110   -3.9767 C.3       1 <0>        -0.1500
     22 C18         3.2762    0.3165   -4.6975 C.3       1 <0>         0.1359
     23 C19         3.0335   -0.9832   -5.4674 C.3       1 <0>        -0.1736
     24 O2          3.2112    1.4367   -5.5823 O.3       1 <0>        -0.5554
     25 C20         2.0387    1.9496   -3.2658 C.3       1 <0>        -0.1362
     26 H4          0.9240    1.8972   -0.0238 H         1 <0>         0.0674
     27 H5         -0.6039    1.8921   -0.9368 H         1 <0>         0.0679
     28 H6         -0.6306    1.8763    0.8429 H         1 <0>         0.0563
     29 H7         -2.1675    0.2915    0.2860 H         1 <0>         0.0710
     30 H8         -1.7789   -0.5246   -1.2390 H         1 <0>         0.0892
     31 H9         -2.8307   -2.0488    0.4473 H         1 <0>         0.0916
     32 H10        -1.1965   -2.5800   -0.0338 H         1 <0>         0.0981
     33 H11         0.5969   -1.4429    3.0329 H         1 <0>         0.1352
     34 H12         2.1074    1.0769    1.4890 H         1 <0>         0.0827
     35 H13         2.4872   -0.4934    2.2462 H         1 <0>         0.0775
     36 H14         3.8532   -0.0552    0.1755 H         1 <0>         0.0714
     37 H15         2.8435   -1.5130    0.0435 H         1 <0>         0.0651
     38 H16        -0.9048   -0.4344   -2.6537 H         1 <0>         0.0674
     39 H17        -0.1145    1.1431   -2.4650 H         1 <0>         0.0745
     40 H18         1.0525   -1.2839   -3.9123 H         1 <0>         0.0648
     41 H19         0.4243    0.2022   -4.6765 H         1 <0>         0.0673
     42 H20         4.4022    1.3589   -2.0712 H         1 <0>         0.0707
     43 H21         5.0637   -0.3013   -1.9118 H         1 <0>         0.0665
     44 H22         5.2553    1.1828   -4.2581 H         1 <0>         0.0732
     45 H23         5.1983   -0.6030   -4.2371 H         1 <0>         0.0657
     46 H24         2.0333   -0.9677   -5.9003 H         1 <0>         0.0668
     47 H25         3.7724   -1.0775   -6.2632 H         1 <0>         0.0562
     48 H26         3.1220   -1.8304   -4.7872 H         1 <0>         0.0661
     49 H27         3.8411    1.3963   -6.3149 H         1 <0>         0.3730
     50 H28         1.3848    2.0483   -2.3994 H         1 <0>         0.0606
     51 H29         2.9998    2.4168   -3.0508 H         1 <0>         0.0540
     52 H30         1.5804    2.4398   -4.1247 H         1 <0>         0.0598
@<TRIPOS>BOND
     1    1    2 1
     2    1   26 1
     3    1   27 1
     4    1   28 1
     5    2    8 1
     6    2   13 1
     7    2    3 1
     8    3    4 1
     9    3   29 1
    10    3   30 1
    11    4    5 1
    12    4   31 1
    13    4   32 1
    14    5    6 2
    15    5    7 1
    16    7    8 2
    17    7   33 1
    18    8    9 1
    19    9   10 1
    20    9   34 1
    21    9   35 1
    22   10   11 1
    23   10   36 1
    24   10   37 1
    25   11   12 1
    26   11   18 1
    27   11   13 1
    28   13   14 1
    29   13   15 1
    30   15   16 1
    31   15   38 1
    32   15   39 1
    33   16   17 1
    34   16   40 1
    35   16   41 1
    36   17   22 1
    37   17   18 1
    38   17   25 1
    39   18   19 1
    40   18   20 1
    41   20   21 1
    42   20   42 1
    43   20   43 1
    44   21   22 1
    45   21   44 1
    46   21   45 1
    47   22   23 1
    48   22   24 1
    49   23   46 1
    50   23   47 1
    51   23   48 1
    52   24   49 1
    53   25   50 1
    54   25   51 1
    55   25   52 1
