@<TRIPOS>MOLECULE
ZINC03814418
   51    54     0     0     0
SMALL
USER_CHARGES

@<TRIPOS>ATOM
      1 C1         -0.0715    1.5243   -0.0191 C.3       1 <0>        -0.1491
      2 C2         -0.0539   -0.0055   -0.0297 C.3       1 <0>        -0.0516
      3 C3         -1.4898   -0.5265   -0.0566 C.3       1 <0>        -0.1057
      4 C4         -1.4798   -2.0568   -0.1319 C.3       1 <0>        -0.1724
      5 C5         -0.6452   -2.5865    1.0133 C.2       1 <0>         0.3608
      6 O1         -1.0794   -3.4333    1.7567 O.2       1 <0>        -0.4593
      7 C6          0.7472   -2.0279    1.2022 C.3       1 <0>        -0.1712
      8 C7          0.6673   -0.5113    1.2217 C.3       1 <0>        -0.0686
      9 H1          0.1255   -0.1909    2.1116 H         1 <0>         0.0757
     10 C8          2.0926    0.0504    1.2401 C.3       1 <0>        -0.1168
     11 C9          2.8408   -0.4263   -0.0069 C.3       1 <0>        -0.1180
     12 C10         2.1172    0.0707   -1.2586 C.3       1 <0>        -0.0760
     13 H2          2.0827    1.1601   -1.2548 H         1 <0>         0.0861
     14 C11         0.6873   -0.4932   -1.2742 C.3       1 <0>        -0.0720
     15 H3          0.7366   -1.5818   -1.2519 H         1 <0>         0.0693
     16 C12        -0.0660   -0.0718   -2.5312 C.3       1 <0>        -0.1208
     17 C13         0.7050   -0.4613   -3.8037 C.3       1 <0>        -0.1027
     18 C14         2.0706    0.1919   -3.7221 C.3       1 <0>        -0.0581
     19 C15         2.8254   -0.4143   -2.5093 C.3       1 <0>        -0.0826
     20 H4          2.7976   -1.5026   -2.5631 H         1 <0>         0.0731
     21 C16         4.2502    0.1108   -2.7172 C.3       1 <0>        -0.1122
     22 C17         4.4550   -0.0372   -4.2497 C.3       1 <0>        -0.1556
     23 C18         3.0215   -0.0666   -4.8859 C.3       1 <0>         0.1090
     24 H5          2.7987   -1.0277   -5.3493 H         1 <0>         0.0599
     25 O2          2.9215    0.9838   -5.8496 O.3       1 <0>        -0.5617
     26 C19         1.9111    1.6986   -3.5096 C.3       1 <0>        -0.1345
     27 H6          0.9519    1.8995   -0.0110 H         1 <0>         0.0655
     28 H7         -0.5847    1.8879   -0.9094 H         1 <0>         0.0601
     29 H8         -0.5943    1.8755    0.8705 H         1 <0>         0.0549
     30 H9         -2.0074   -0.2111    0.8493 H         1 <0>         0.0672
     31 H10        -2.0058   -0.1236   -0.9280 H         1 <0>         0.0798
     32 H11        -2.4987   -2.4349   -0.0490 H         1 <0>         0.0872
     33 H12        -1.0459   -2.3747   -1.0800 H         1 <0>         0.1000
     34 H13         1.1614   -2.3886    2.1437 H         1 <0>         0.0878
     35 H14         1.3833   -2.3438    0.3752 H         1 <0>         0.1046
     36 H15         2.0543    1.1397    1.2471 H         1 <0>         0.0712
     37 H16         2.6109   -0.3016    2.1321 H         1 <0>         0.0643
     38 H17         3.8568   -0.0315    0.0060 H         1 <0>         0.0648
     39 H18         2.8749   -1.5158   -0.0157 H         1 <0>         0.0635
     40 H19        -1.0414   -0.5581   -2.5423 H         1 <0>         0.0643
     41 H20        -0.2076    1.0089   -2.5167 H         1 <0>         0.0721
     42 H21         0.8146   -1.5446   -3.8539 H         1 <0>         0.0608
     43 H22         0.1735   -0.1003   -4.6843 H         1 <0>         0.0660
     44 H23         4.3234    1.1563   -2.4175 H         1 <0>         0.0704
     45 H24         4.9696   -0.4994   -2.1712 H         1 <0>         0.0658
     46 H25         5.0405    0.7993   -4.6314 H         1 <0>         0.0738
     47 H26         4.9583   -0.9784   -4.4707 H         1 <0>         0.0633
     48 H27         3.5040    0.8735   -6.6136 H         1 <0>         0.3748
     49 H28         1.3059    1.8782   -2.6210 H         1 <0>         0.0611
     50 H29         2.8931    2.1530   -3.3783 H         1 <0>         0.0533
     51 H30         1.4206    2.1381   -4.3782 H         1 <0>         0.0584
@<TRIPOS>BOND
     1    1    2 1
     2    1   27 1
     3    1   28 1
     4    1   29 1
     5    2    8 1
     6    2   14 1
     7    2    3 1
     8    3    4 1
     9    3   30 1
    10    3   31 1
    11    4    5 1
    12    4   32 1
    13    4   33 1
    14    5    6 2
    15    5    7 1
    16    7    8 1
    17    7   34 1
    18    7   35 1
    19    8    9 1
    20    8   10 1
    21   10   11 1
    22   10   36 1
    23   10   37 1
    24   11   12 1
    25   11   38 1
    26   11   39 1
    27   12   13 1
    28   12   19 1
    29   12   14 1
    30   14   15 1
    31   14   16 1
    32   16   17 1
    33   16   40 1
    34   16   41 1
    35   17   18 1
    36   17   42 1
    37   17   43 1
    38   18   23 1
    39   18   19 1
    40   18   26 1
    41   19   20 1
    42   19   21 1
    43   21   22 1
    44   21   44 1
    45   21   45 1
    46   22   23 1
    47   22   46 1
    48   22   47 1
    49   23   24 1
    50   23   25 1
    51   25   48 1
    52   26   49 1
    53   26   50 1
    54   26   51 1
