@<TRIPOS>MOLECULE
ZINC03814379
   46    49     0     0     0
SMALL
USER_CHARGES

@<TRIPOS>ATOM
      1 C1         -0.0187    1.5258    0.0104 C.3       1 <0>        -0.1327
      2 C2          0.0021   -0.0041    0.0020 C.3       1 <0>        -0.0582
      3 C3         -1.4158   -0.5376    0.0743 C.3       1 <0>        -0.1031
      4 C4         -2.0776    0.1004    1.3058 C.3       1 <0>        -0.1175
      5 C5         -1.2987   -0.1970    2.5836 C.3       1 <0>        -0.0706
      6 H1         -1.3515   -1.2658    2.7907 H         1 <0>         0.0723
      7 C6          0.1752    0.2165    2.4630 C.3       1 <0>        -0.0761
      8 H2          0.2494    1.2951    2.3243 H         1 <0>         0.0863
      9 C7          0.7514   -0.5272    1.2569 C.3       1 <0>        -0.0831
     10 H3          0.6125   -1.6031    1.3628 H         1 <0>         0.0780
     11 C8          2.2067   -0.1924    0.9110 C.3       1 <0>        -0.1134
     12 C9          2.3039   -0.5736   -0.5914 C.3       1 <0>        -0.1574
     13 C10         0.8625   -0.5030   -1.1542 C.3       1 <0>         0.1103
     14 H4          0.5320   -1.4921   -1.4715 H         1 <0>         0.0569
     15 O1          0.8024    0.4146   -2.2480 O.3       1 <0>        -0.5600
     16 C11         0.9157   -0.1993    3.7375 C.3       1 <0>        -0.1135
     17 C12         0.3625    0.5959    4.9221 C.3       1 <0>        -0.0981
     18 C13        -1.1396    0.3896    4.9907 C.2       1 <0>        -0.0231
     19 C14        -1.6676    0.0666    6.1711 C.2       1 <0>        -0.2438
     20 C15        -3.1159   -0.1282    6.2982 C.2       1 <0>         0.3878
     21 O2         -3.5965   -0.7740    7.2060 O.2       1 <0>        -0.4582
     22 C16        -3.9807    0.5207    5.2350 C.3       1 <0>        -0.1689
     23 C17        -3.3979    0.1372    3.8755 C.3       1 <0>        -0.1093
     24 C18        -1.9353    0.5692    3.7501 C.3       1 <0>        -0.0624
     25 H5         -1.9238    1.6303    3.5011 H         1 <0>         0.0904
     26 H6          1.0039    1.9031    0.0027 H         1 <0>         0.0541
     27 H7         -0.5459    1.8868   -0.8726 H         1 <0>         0.0596
     28 H8         -0.5289    1.8773    0.9072 H         1 <0>         0.0596
     29 H9         -1.9632   -0.2607   -0.8268 H         1 <0>         0.0675
     30 H10        -1.3995   -1.6222    0.1815 H         1 <0>         0.0630
     31 H11        -2.1276    1.1799    1.1632 H         1 <0>         0.0695
     32 H12        -3.0901   -0.2904    1.4077 H         1 <0>         0.0660
     33 H13         2.4020    0.8706    1.0526 H         1 <0>         0.0710
     34 H14         2.8929   -0.7943    1.5068 H         1 <0>         0.0662
     35 H15         2.9456    0.1342   -1.1162 H         1 <0>         0.0726
     36 H16         2.6974   -1.5847   -0.6961 H         1 <0>         0.0668
     37 H17         1.3308    0.1496   -3.0133 H         1 <0>         0.3754
     38 H18         0.7681   -1.2649    3.9134 H         1 <0>         0.0656
     39 H19         1.9798    0.0081    3.6247 H         1 <0>         0.0719
     40 H20         0.8223    0.2433    5.8454 H         1 <0>         0.0776
     41 H21         0.5800    1.6550    4.7845 H         1 <0>         0.0839
     42 H22        -1.0290   -0.0520    7.0340 H         1 <0>         0.1334
     43 H23        -5.0043    0.1549    5.3159 H         1 <0>         0.0923
     44 H24        -3.9630    1.6041    5.3535 H         1 <0>         0.0995
     45 H25        -3.4588   -0.9444    3.7551 H         1 <0>         0.0688
     46 H26        -3.9842    0.6144    3.0902 H         1 <0>         0.0830
@<TRIPOS>BOND
     1    1    2 1
     2    1   26 1
     3    1   27 1
     4    1   28 1
     5    2    9 1
     6    2   13 1
     7    2    3 1
     8    3    4 1
     9    3   29 1
    10    3   30 1
    11    4    5 1
    12    4   31 1
    13    4   32 1
    14    5    6 1
    15    5   24 1
    16    5    7 1
    17    7    8 1
    18    7    9 1
    19    7   16 1
    20    9   10 1
    21    9   11 1
    22   11   12 1
    23   11   33 1
    24   11   34 1
    25   12   13 1
    26   12   35 1
    27   12   36 1
    28   13   14 1
    29   13   15 1
    30   15   37 1
    31   16   17 1
    32   16   38 1
    33   16   39 1
    34   17   18 1
    35   17   40 1
    36   17   41 1
    37   18   24 1
    38   18   19 2
    39   19   20 1
    40   19   42 1
    41   20   21 2
    42   20   22 1
    43   22   23 1
    44   22   43 1
    45   22   44 1
    46   23   24 1
    47   23   45 1
    48   23   46 1
    49   24   25 1
