@<TRIPOS>MOLECULE
ZINC04084115
   58    61     0     0     0
SMALL
USER_CHARGES
10,13-dimethyl-17-methylamino-2,3,4,5,6,7,8,9,11,12,14,15,16,17-tetradecahydro-1H-cyclopenta[a]phenanthren-3-ol
@<TRIPOS>ATOM
      1 C1         -2.1696   -0.4660   -1.2352 C.3       1 <0>        -0.1547
      2 C2         -2.1885    1.0639   -1.2219 C.3       1 <0>        -0.0450
      3 C3         -0.7525    1.5925   -1.2314 C.3       1 <0>        -0.1081
      4 C4         -0.0127    1.0858    0.0080 C.3       1 <0>        -0.1559
      5 C5         -0.7288    1.5792    1.2669 C.3       1 <0>         0.1050
      6 H1         -0.7447    2.6691    1.2725 H         1 <0>         0.0523
      7 C6         -2.1651    1.0457    1.2774 C.3       1 <0>        -0.1118
      8 C7         -2.9038    1.5550    0.0385 C.3       1 <0>        -0.0705
      9 H2         -2.9174    2.6449    0.0466 H         1 <0>         0.0707
     10 C8         -4.3398    1.0278    0.0493 C.3       1 <0>        -0.1189
     11 C9         -5.0803    1.5373   -1.1889 C.3       1 <0>        -0.1128
     12 C10        -4.3678    1.0423   -2.4482 C.3       1 <0>        -0.0785
     13 H3         -4.3553   -0.0476   -2.4599 H         1 <0>         0.0899
     14 C11        -2.9278    1.5782   -2.4576 C.3       1 <0>        -0.0691
     15 H4         -2.9573    2.6672   -2.4220 H         1 <0>         0.0661
     16 C12        -2.1939    1.1842   -3.7364 C.3       1 <0>        -0.1194
     17 C13        -2.9715    1.5894   -4.9999 C.3       1 <0>        -0.1220
     18 C14        -4.3408    0.9442   -4.9143 C.3       1 <0>        -0.0880
     19 C15        -5.0696    1.5603   -3.6896 C.3       1 <0>        -0.0857
     20 H5         -5.0212    2.6487   -3.7256 H         1 <0>         0.0773
     21 C16        -6.5116    1.0836   -3.8921 C.3       1 <0>        -0.1215
     22 C17        -6.7229    1.2561   -5.4212 C.3       1 <0>        -0.1369
     23 C18        -5.3145    1.2094   -6.0646 C.3       1 <0>         0.0340
     24 H6         -5.2633    0.4100   -6.8038 H         1 <0>         0.1427
     25 C19        -5.5106    2.5599   -8.0647 C.3       1 <0>        -0.0448
     26 C20        -4.1896   -0.5660   -4.7204 C.3       1 <0>        -0.1543
     27 O1         -0.0372    1.1066    2.4247 O.3       1 <0>        -0.5678
     28 H7         -1.6427   -0.8305   -0.3534 H         1 <0>         0.0658
     29 H8         -3.1926   -0.8420   -1.2284 H         1 <0>         0.0608
     30 H9         -1.6600   -0.8153   -2.1332 H         1 <0>         0.0549
     31 H10        -0.7667    2.6824   -1.2256 H         1 <0>         0.0624
     32 H11        -0.2422    1.2408   -2.1280 H         1 <0>         0.0676
     33 H12         0.0021   -0.0041    0.0020 H         1 <0>         0.0753
     34 H13         1.0099    1.4631    0.0003 H         1 <0>         0.0650
     35 H14        -2.6757    1.3957    2.1744 H         1 <0>         0.0706
     36 H15        -2.1507   -0.0442    1.2694 H         1 <0>         0.0746
     37 H16        -4.3267   -0.0621    0.0419 H         1 <0>         0.0689
     38 H17        -4.8489    1.3789    0.9469 H         1 <0>         0.0672
     39 H18        -6.1040    1.1630   -1.1798 H         1 <0>         0.0656
     40 H19        -5.0918    2.6272   -1.1826 H         1 <0>         0.0618
     41 H20        -2.0590    0.1026   -3.7320 H         1 <0>         0.0779
     42 H21        -1.2156    1.6646   -3.7502 H         1 <0>         0.0755
     43 H22        -2.4485    1.2328   -5.8873 H         1 <0>         0.0778
     44 H23        -3.0746    2.6737   -5.0413 H         1 <0>         0.0639
     45 H24        -6.6162    0.0377   -3.6038 H         1 <0>         0.0860
     46 H25        -7.2070    1.7102   -3.3335 H         1 <0>         0.0861
     47 H26        -7.3380    0.4435   -5.8079 H         1 <0>         0.1027
     48 H27        -7.1969    2.2157   -5.6276 H         1 <0>         0.0852
     49 H28        -6.5931    2.4331   -8.0543 H         1 <0>         0.1223
     50 H29        -5.2621    3.5261   -8.5038 H         1 <0>         0.1244
     51 H30        -5.0573    1.7645   -8.6563 H         1 <0>         0.1226
     52 H31        -5.1756   -1.0200   -4.6214 H         1 <0>         0.0685
     53 H32        -3.6777   -0.9935   -5.5825 H         1 <0>         0.0646
     54 H33        -3.6080   -0.7602   -3.8193 H         1 <0>         0.0882
     55 H34         0.8808    1.4046    2.4834 H         1 <0>         0.3803
     56 N1         -4.9920    2.5084   -6.6847 N.4       1 <0>        -0.5199
     57 H35        -3.9729    2.6322   -6.7010 H         1 <0>         0.4307
     58 H36        -5.4196    3.2620   -6.1338 H         1 <0>         0.4304
@<TRIPOS>BOND
     1    1    2 1
     2    1   28 1
     3    1   29 1
     4    1   30 1
     5    2    8 1
     6    2   14 1
     7    2    3 1
     8    3    4 1
     9    3   31 1
    10    3   32 1
    11    4    5 1
    12    4   33 1
    13    4   34 1
    14    5    6 1
    15    5    7 1
    16    5   27 1
    17    7    8 1
    18    7   35 1
    19    7   36 1
    20    8    9 1
    21    8   10 1
    22   10   11 1
    23   10   37 1
    24   10   38 1
    25   11   12 1
    26   11   39 1
    27   11   40 1
    28   12   13 1
    29   12   19 1
    30   12   14 1
    31   14   15 1
    32   14   16 1
    33   16   17 1
    34   16   41 1
    35   16   42 1
    36   17   18 1
    37   17   43 1
    38   17   44 1
    39   18   23 1
    40   18   19 1
    41   18   26 1
    42   19   20 1
    43   19   21 1
    44   21   22 1
    45   21   45 1
    46   21   46 1
    47   22   23 1
    48   22   47 1
    49   22   48 1
    50   23   24 1
    51   23   56 1
    52   25   49 1
    53   25   50 1
    54   25   51 1
    55   25   56 1
    56   26   52 1
    57   26   53 1
    58   26   54 1
    59   27   55 1
    60   56   57 1
    61   56   58 1

