@<TRIPOS>MOLECULE
ZINC04084113
   58    61     0     0     0
SMALL
USER_CHARGES
10,13-dimethyl-17-methylamino-2,3,4,5,6,7,8,9,11,12,14,15,16,17-tetradecahydro-1H-cyclopenta[a]phenanthren-3-ol
@<TRIPOS>ATOM
      1 C1          0.3384    7.8436   -1.6658 C.3       1 <0>        -0.1536
      2 C2         -0.1011    7.3576   -3.0484 C.3       1 <0>        -0.0469
      3 C3          1.0041    7.6467   -4.0662 C.3       1 <0>        -0.1087
      4 C4          1.2690    9.1526   -4.1186 C.3       1 <0>        -0.1554
      5 C5         -0.0104    9.8812   -4.5351 C.3       1 <0>         0.1047
      6 H1         -0.3233    9.5323   -5.5192 H         1 <0>         0.0526
      7 C6         -1.1151    9.5931   -3.5165 C.3       1 <0>        -0.1114
      8 C7         -1.3802    8.0872   -3.4642 C.3       1 <0>        -0.0714
      9 H2         -1.6929    7.7393   -4.4487 H         1 <0>         0.0715
     10 C8         -2.4870    7.7991   -2.4483 C.3       1 <0>        -0.1177
     11 C9         -2.7502    6.2928   -2.3919 C.3       1 <0>        -0.1129
     12 C10        -1.4716    5.5682   -1.9689 C.3       1 <0>        -0.0764
     13 H3         -1.1504    5.9037   -0.9828 H         1 <0>         0.0863
     14 C11        -0.3675    5.8526   -2.9991 C.3       1 <0>        -0.0714
     15 H4         -0.7129    5.5347   -3.9829 H         1 <0>         0.0704
     16 C12         0.9187    5.1058   -2.6628 C.3       1 <0>        -0.1226
     17 C13         0.6671    3.5961   -2.5118 C.3       1 <0>        -0.1082
     18 C14        -0.3835    3.4190   -1.4334 C.3       1 <0>        -0.0873
     19 C15        -1.6955    4.0678   -1.9519 C.3       1 <0>        -0.0737
     20 H5         -1.9442    3.7103   -2.9511 H         1 <0>         0.0895
     21 C16        -2.7181    3.5558   -0.9316 C.3       1 <0>        -0.1221
     22 C17        -2.3004    2.0729   -0.7348 C.3       1 <0>        -0.1368
     23 C18        -0.8017    1.9868   -1.1173 C.3       1 <0>         0.0335
     24 H6         -0.6714    1.3517   -1.9934 H         1 <0>         0.1426
     25 C19         0.0021   -0.0041    0.0020 C.3       1 <0>        -0.0453
     26 C20         0.0689    4.1207   -0.1513 C.3       1 <0>        -0.1805
     27 O1          0.2370   11.2878   -4.5847 O.3       1 <0>        -0.5682
     28 H7          1.2493    7.3230   -1.3703 H         1 <0>         0.0536
     29 H8          0.5282    8.9163   -1.7011 H         1 <0>         0.0651
     30 H9         -0.4491    7.6376   -0.9409 H         1 <0>         0.0597
     31 H10         1.9156    7.1277   -3.7699 H         1 <0>         0.0677
     32 H11         0.6915    7.2985   -5.0506 H         1 <0>         0.0633
     33 H12         1.5815    9.5011   -3.1342 H         1 <0>         0.0744
     34 H13         2.0565    9.3580   -4.8437 H         1 <0>         0.0648
     35 H14        -0.8017    9.9412   -2.5323 H         1 <0>         0.0736
     36 H15        -2.0266   10.1124   -3.8124 H         1 <0>         0.0704
     37 H16        -2.1772    8.1507   -1.4642 H         1 <0>         0.0676
     38 H17        -3.3987    8.3160   -2.7480 H         1 <0>         0.0670
     39 H18        -3.0588    5.9407   -3.3762 H         1 <0>         0.0642
     40 H19        -3.5398    6.0887   -1.6687 H         1 <0>         0.0651
     41 H20         1.6444    5.2686   -3.4597 H         1 <0>         0.0745
     42 H21         1.3226    5.4944   -1.7279 H         1 <0>         0.0734
     43 H22         0.3046    3.1847   -3.4538 H         1 <0>         0.0767
     44 H23         1.5892    3.0941   -2.2187 H         1 <0>         0.0656
     45 H24        -3.7294    3.6217   -1.3329 H         1 <0>         0.0872
     46 H25        -2.6371    4.1069    0.0053 H         1 <0>         0.0805
     47 H26        -2.8904    1.4284   -1.3864 H         1 <0>         0.1008
     48 H27        -2.4383    1.7803    0.3061 H         1 <0>         0.0837
     49 H28        -1.0174   -0.3817    0.0806 H         1 <0>         0.1220
     50 H29         0.4494   -0.3563   -0.9275 H         1 <0>         0.1222
     51 H30         0.5890   -0.3641    0.8470 H         1 <0>         0.1244
     52 H31         0.9314    3.5990    0.2635 H         1 <0>         0.0516
     53 H32         0.3421    5.1512   -0.3781 H         1 <0>         0.1017
     54 H33        -0.7446    4.1117    0.5742 H         1 <0>         0.0721
     55 H34         0.9279   11.5438   -5.2110 H         1 <0>         0.3803
     56 N1         -0.0129    1.4709    0.0174 N.4       1 <0>        -0.5168
     57 H35        -0.4316    1.7962    0.8967 H         1 <0>         0.4313
     58 H36         0.9501    1.8201   -0.0529 H         1 <0>         0.4318
@<TRIPOS>BOND
     1    1    2 1
     2    1   28 1
     3    1   29 1
     4    1   30 1
     5    2    8 1
     6    2   14 1
     7    2    3 1
     8    3    4 1
     9    3   31 1
    10    3   32 1
    11    4    5 1
    12    4   33 1
    13    4   34 1
    14    5    6 1
    15    5    7 1
    16    5   27 1
    17    7    8 1
    18    7   35 1
    19    7   36 1
    20    8    9 1
    21    8   10 1
    22   10   11 1
    23   10   37 1
    24   10   38 1
    25   11   12 1
    26   11   39 1
    27   11   40 1
    28   12   13 1
    29   12   19 1
    30   12   14 1
    31   14   15 1
    32   14   16 1
    33   16   17 1
    34   16   41 1
    35   16   42 1
    36   17   18 1
    37   17   43 1
    38   17   44 1
    39   18   23 1
    40   18   19 1
    41   18   26 1
    42   19   20 1
    43   19   21 1
    44   21   22 1
    45   21   45 1
    46   21   46 1
    47   22   23 1
    48   22   47 1
    49   22   48 1
    50   23   24 1
    51   23   56 1
    52   25   49 1
    53   25   50 1
    54   25   51 1
    55   25   56 1
    56   26   52 1
    57   26   53 1
    58   26   54 1
    59   27   55 1
    60   56   57 1
    61   56   58 1

