@<TRIPOS>MOLECULE
MOL
   32   33    0    0    0
SMALL
USER_CHARGES


@<TRIPOS>ATOM
   1   C1       18.8934    5.5819   24.1747  C.2 1 <0> -0.1356
   2   C2       18.1301    4.7642   24.8969  C.2 1 <0> -0.0410
   3   C3       18.2645    6.8544   23.7342  C.2 1 <0>  0.4856
   4   C4       16.2520    6.2866   24.7933  C.2 1 <0>  0.8408
   5   C5       15.3820    3.0682   25.1622  C.3 1 <0>  0.0000
   6   C6       15.4162    1.8505   26.0566  C.3 1 <0>  0.2800
   7   C7       16.7283    2.0138   26.8111  C.3 1 <0>  0.2800
   8   C8       16.0764    4.1199   26.0119  C.3 1 <0>  0.5801
   9   C9       17.9106    1.3823   26.0876  C.3 1 <0>  0.2800
  10   N1       17.0289    7.1510   24.0411  N.2 1 <0> -0.6611
  11   N2       16.8196    5.0644   25.2302 N.am 1 <0> -0.4690
  12   N3       19.0194    7.7275   22.9859 N.pl3 1 <0> -0.8501
  13   O1       18.7676   -2.3524   26.1510  O.3 1 <0> -1.0332
  14   O2       20.3972   -0.3812   26.2318  O.3 1 <0> -1.0332
  15   O3       15.0888    6.5824   25.0727  O.2 1 <0> -0.5698
  16   O4       18.9314   -0.7527   24.1606  O.2 1 <0> -1.0332
  17   O5       16.9690    3.4315   26.8994  O.3 1 <0> -0.5601
  18   O6       14.3223    1.8946   26.9702  O.3 1 <0> -0.6802
  19   O7       17.9091   -0.0135   26.3390  O.3 1 <0> -0.5513
  20   P1       19.0969   -0.9440   25.6653  P.3 1 <0>  1.3711
  21   H1       19.9176    5.3550   23.9105    H 1 <0>  0.1500
  22   H2       18.5100    3.8155   25.2595    H 1 <0>  0.1500
  23   H3       15.8520    2.8983   24.1870    H 1 <0>  0.0000
  24   H4       14.3405    3.3601   24.9711    H 1 <0>  0.0000
  25   H5       15.3663    0.9351   25.4839    H 1 <0>  0.0000
  26   H6       16.6681    1.6130   27.8171    H 1 <0>  0.0000
  27   H7       15.3483    4.6961   26.6094    H 1 <0>  0.0000
  28   H8       18.8490    1.8078   26.4511    H 1 <0>  0.0000
  29   H9       17.8303    1.5497   25.0110    H 1 <0>  0.0000
  30  H10       19.9527    7.4708   22.7715    H 1 <0>  0.3999
  31  H11       18.5977    8.5756   22.6932    H 1 <0>  0.3999
  32  H12       14.2530    1.0535   27.4278    H 1 <0>  0.3999
@<TRIPOS>BOND
    1     1     2  1
    2     1     3  1
    3     2    11  1
    4     3    10  1
    5     3    12  1
    6     4    10  1
    7     4    11  1
    8     4    15  1
    9     5     6  1
   10     5     8  1
   11     6     7  1
   12     6    18  1
   13     7     9  1
   14     7    17  1
   15     8    11  1
   16     8    17  1
   17     9    19  1
   18    13    20  1
   19    14    20  1
   20    16    20  1
   21    19    20  1
   22     1    21  1
   23     2    22  1
   24     5    23  1
   25     5    24  1
   26     6    25  1
   27     7    26  1
   28     8    27  1
   29     9    28  1
   30     9    29  1
   31    12    30  1
   32    12    31  1
   33    18    32  1

@<TRIPOS>MOLECULE
MOL
   32   33    0    0    0
SMALL
USER_CHARGES


@<TRIPOS>ATOM
   1   C1       18.8446    5.5635   24.1110  C.2 1 <0> -0.1356
   2   C2       18.0933    4.7494   24.8497  C.2 1 <0> -0.0410
   3   C3       18.2020    6.8247   23.6579  C.2 1 <0>  0.4856
   4   C4       16.2019    6.2547   24.7393  C.2 1 <0>  0.8408
   5   C5       15.3615    3.0346   25.1580  C.3 1 <0>  0.0000
   6   C6       15.4122    1.8295   26.0685  C.3 1 <0>  0.2800
   7   C7       16.7283    2.0138   26.8111  C.3 1 <0>  0.2800
   8   C8       16.0531    4.1034   25.9883  C.3 1 <0>  0.5801
   9   C9       17.9106    1.3823   26.0876  C.3 1 <0>  0.2800
  10   N1       16.9662    7.1152   23.9698  N.2 1 <0> -0.6611
  11   N2       16.7828    5.0433   25.1885 N.am 1 <0> -0.4690
  12   N3       18.9442    7.6937   22.8924 N.pl3 1 <0> -0.8501
  13   O1       18.7676   -2.3524   26.1510  O.3 1 <0> -1.0332
  14   O2       20.3972   -0.3812   26.2318  O.3 1 <0> -1.0332
  15   O3       15.0383    6.5447   25.0231  O.2 1 <0> -0.5698
  16   O4       18.9314   -0.7527   24.1606  O.2 1 <0> -1.0332
  17   O5       16.9578    3.4345   26.8785  O.3 1 <0> -0.5601
  18   O6       14.3246    1.8769   26.9893  O.3 1 <0> -0.6802
  19   O7       17.9091   -0.0135   26.3390  O.3 1 <0> -0.5513
  20   P1       19.0969   -0.9440   25.6653  P.3 1 <0>  1.3711
  21   H1       19.8687    5.3415   23.8424    H 1 <0>  0.1500
  22   H2       18.4837    3.8089   25.2223    H 1 <0>  0.1500
  23   H3       15.8258    2.8553   24.1817    H 1 <0>  0.0000
  24   H4       14.3162    3.3153   24.9705    H 1 <0>  0.0000
  25   H5       15.3658    0.9060   25.5086    H 1 <0>  0.0000
  26   H6       16.6787    1.6262   27.8228    H 1 <0>  0.0000
  27   H7       15.3246    4.6817   26.5832    H 1 <0>  0.0000
  28   H8       18.8490    1.8078   26.4511    H 1 <0>  0.0000
  29   H9       17.8303    1.5497   25.0110    H 1 <0>  0.0000
  30  H10       19.8780    7.4418   22.6747    H 1 <0>  0.3999
  31  H11       18.5133    8.5343   22.5914    H 1 <0>  0.3999
  32  H12       14.2656    1.0416   27.4588    H 1 <0>  0.3999
@<TRIPOS>BOND
    1     1     2  1
    2     1     3  1
    3     2    11  1
    4     3    10  1
    5     3    12  1
    6     4    10  1
    7     4    11  1
    8     4    15  1
    9     5     6  1
   10     5     8  1
   11     6     7  1
   12     6    18  1
   13     7     9  1
   14     7    17  1
   15     8    11  1
   16     8    17  1
   17     9    19  1
   18    13    20  1
   19    14    20  1
   20    16    20  1
   21    19    20  1
   22     1    21  1
   23     2    22  1
   24     5    23  1
   25     5    24  1
   26     6    25  1
   27     7    26  1
   28     8    27  1
   29     9    28  1
   30     9    29  1
   31    12    30  1
   32    12    31  1
   33    18    32  1

@<TRIPOS>MOLECULE
MOL
   32   33    0    0    0
SMALL
USER_CHARGES


@<TRIPOS>ATOM
   1   C1       18.7955    5.5438   24.0479  C.2 1 <0> -0.1356
   2   C2       18.0564    4.7337   24.8030  C.2 1 <0> -0.0410
   3   C3       18.1391    6.7934   23.5825  C.2 1 <0>  0.4856
   4   C4       16.1517    6.2217   24.6860  C.2 1 <0>  0.8408
   5   C5       15.3412    3.0007   25.1543  C.3 1 <0>  0.0000
   6   C6       15.4085    1.8086   26.0806  C.3 1 <0>  0.2800
   7   C7       16.7283    2.0138   26.8111  C.3 1 <0>  0.2800
   8   C8       16.0299    4.0864   25.9651  C.3 1 <0>  0.5801
   9   C9       17.9106    1.3823   26.0876  C.3 1 <0>  0.2800
  10   N1       16.9032    7.0780   23.8994  N.2 1 <0> -0.6611
  11   N2       16.7459    5.0213   25.1473 N.am 1 <0> -0.4690
  12   N3       18.8685    7.6581   22.7999 N.pl3 1 <0> -0.8501
  13   O1       18.7676   -2.3524   26.1510  O.3 1 <0> -1.0332
  14   O2       20.3972   -0.3812   26.2318  O.3 1 <0> -1.0332
  15   O3       14.9878    6.5059   24.9744  O.2 1 <0> -0.5698
  16   O4       18.9314   -0.7527   24.1606  O.2 1 <0> -1.0332
  17   O5       16.9464    3.4371   26.8576  O.3 1 <0> -0.5601
  18   O6       14.3271    1.8596   27.0087  O.3 1 <0> -0.6802
  19   O7       17.9091   -0.0135   26.3390  O.3 1 <0> -0.5513
  20   P1       19.0969   -0.9440   25.6653  P.3 1 <0>  1.3711
  21   H1       19.8195    5.3266   23.7749    H 1 <0>  0.1500
  22   H2       18.4572    3.8016   25.1855    H 1 <0>  0.1500
  23   H3       15.8000    2.8121   24.1773    H 1 <0>  0.0000
  24   H4       14.2923    3.2702   24.9707    H 1 <0>  0.0000
  25   H5       15.3658    0.8772   25.5336    H 1 <0>  0.0000
  26   H6       16.6892    1.6396   27.8283    H 1 <0>  0.0000
  27   H7       15.3008    4.6667   26.5574    H 1 <0>  0.0000
  28   H8       18.8490    1.8078   26.4511    H 1 <0>  0.0000
  29   H9       17.8303    1.5497   25.0110    H 1 <0>  0.0000
  30  H10       19.8028    7.4110   22.5789    H 1 <0>  0.3999
  31  H11       18.4285    8.4909   22.4907    H 1 <0>  0.3999
  32  H12       14.2785    1.0302   27.4898    H 1 <0>  0.3999
@<TRIPOS>BOND
    1     1     2  1
    2     1     3  1
    3     2    11  1
    4     3    10  1
    5     3    12  1
    6     4    10  1
    7     4    11  1
    8     4    15  1
    9     5     6  1
   10     5     8  1
   11     6     7  1
   12     6    18  1
   13     7     9  1
   14     7    17  1
   15     8    11  1
   16     8    17  1
   17     9    19  1
   18    13    20  1
   19    14    20  1
   20    16    20  1
   21    19    20  1
   22     1    21  1
   23     2    22  1
   24     5    23  1
   25     5    24  1
   26     6    25  1
   27     7    26  1
   28     8    27  1
   29     9    28  1
   30     9    29  1
   31    12    30  1
   32    12    31  1
   33    18    32  1

@<TRIPOS>MOLECULE
MOL
   32   33    0    0    0
SMALL
USER_CHARGES


@<TRIPOS>ATOM
   1   C1       18.7461    5.5229   23.9854  C.2 1 <0> -0.1356
   2   C2       18.0192    4.7170   24.7568  C.2 1 <0> -0.0410
   3   C3       18.0760    6.7606   23.5080  C.2 1 <0>  0.4856
   4   C4       16.1014    6.1876   24.6336  C.2 1 <0>  0.8408
   5   C5       15.3211    2.9667   25.1513  C.3 1 <0>  0.0000
   6   C6       15.4051    1.7878   26.0931  C.3 1 <0>  0.2800
   7   C7       16.7283    2.0138   26.8111  C.3 1 <0>  0.2800
   8   C8       16.0065    4.0689   25.9422  C.3 1 <0>  0.5801
   9   C9       17.9106    1.3823   26.0876  C.3 1 <0>  0.2800
  10   N1       16.8401    7.0392   23.8301  N.2 1 <0> -0.6611
  11   N2       16.7089    4.9985   25.1067 N.am 1 <0> -0.4690
  12   N3       18.7925    7.6205   22.7085 N.pl3 1 <0> -0.8501
  13   O1       18.7676   -2.3524   26.1510  O.3 1 <0> -1.0332
  14   O2       20.3972   -0.3812   26.2318  O.3 1 <0> -1.0332
  15   O3       14.9373    6.4661   24.9266  O.2 1 <0> -0.5698
  16   O4       18.9314   -0.7527   24.1606  O.2 1 <0> -1.0332
  17   O5       16.9349    3.4394   26.8368  O.3 1 <0> -0.5601
  18   O6       14.3300    1.8425   27.0283  O.3 1 <0> -0.6802
  19   O7       17.9091   -0.0135   26.3390  O.3 1 <0> -0.5513
  20   P1       19.0969   -0.9440   25.6653  P.3 1 <0>  1.3711
  21   H1       19.7699    5.3105   23.7079    H 1 <0>  0.1500
  22   H2       18.4306    3.7935   25.1489    H 1 <0>  0.1500
  23   H3       15.7745    2.7686   24.1735    H 1 <0>  0.0000
  24   H4       14.2687    3.2250   24.9717    H 1 <0>  0.0000
  25   H5       15.3662    0.8488   25.5591    H 1 <0>  0.0000
  26   H6       16.6996    1.6531   27.8335    H 1 <0>  0.0000
  27   H7       15.2769    4.6511   26.5320    H 1 <0>  0.0000
  28   H8       18.8490    1.8078   26.4511    H 1 <0>  0.0000
  29   H9       17.8303    1.5497   25.0110    H 1 <0>  0.0000
  30  H10       19.7273    7.3781   22.4840    H 1 <0>  0.3999
  31  H11       18.3434    8.4454   22.3913    H 1 <0>  0.3999
  32  H12       14.2917    1.0194   27.5209    H 1 <0>  0.3999
@<TRIPOS>BOND
    1     1     2  1
    2     1     3  1
    3     2    11  1
    4     3    10  1
    5     3    12  1
    6     4    10  1
    7     4    11  1
    8     4    15  1
    9     5     6  1
   10     5     8  1
   11     6     7  1
   12     6    18  1
   13     7     9  1
   14     7    17  1
   15     8    11  1
   16     8    17  1
   17     9    19  1
   18    13    20  1
   19    14    20  1
   20    16    20  1
   21    19    20  1
   22     1    21  1
   23     2    22  1
   24     5    23  1
   25     5    24  1
   26     6    25  1
   27     7    26  1
   28     8    27  1
   29     9    28  1
   30     9    29  1
   31    12    30  1
   32    12    31  1
   33    18    32  1

@<TRIPOS>MOLECULE
MOL
   32   33    0    0    0
SMALL
USER_CHARGES


@<TRIPOS>ATOM
   1   C1       18.6964    5.5007   23.9236  C.2 1 <0> -0.1356
   2   C2       17.9818    4.6994   24.7111  C.2 1 <0> -0.0410
   3   C3       18.0126    6.7263   23.4344  C.2 1 <0>  0.4856
   4   C4       16.0510    6.1524   24.5820  C.2 1 <0>  0.8408
   5   C5       15.3013    2.9324   25.1489  C.3 1 <0>  0.0000
   6   C6       15.4019    1.7672   26.1059  C.3 1 <0>  0.2800
   7   C7       16.7283    2.0138   26.8111  C.3 1 <0>  0.2800
   8   C8       15.9832    4.0509   25.9198  C.3 1 <0>  0.5801
   9   C9       17.9106    1.3823   26.0876  C.3 1 <0>  0.2800
  10   N1       16.7767    6.9991   23.7617  N.2 1 <0> -0.6611
  11   N2       16.6717    4.9748   25.0667 N.am 1 <0> -0.4690
  12   N3       18.7162    7.5811   22.6182 N.pl3 1 <0> -0.8501
  13   O1       18.7676   -2.3524   26.1510  O.3 1 <0> -1.0332
  14   O2       20.3972   -0.3812   26.2318  O.3 1 <0> -1.0332
  15   O3       14.8867    6.4252   24.8797  O.2 1 <0> -0.5698
  16   O4       18.9314   -0.7527   24.1606  O.2 1 <0> -1.0332
  17   O5       16.9232    3.4413   26.8160  O.3 1 <0> -0.5601
  18   O6       14.3331    1.8257   27.0480  O.3 1 <0> -0.6802
  19   O7       17.9091   -0.0135   26.3390  O.3 1 <0> -0.5513
  20   P1       19.0969   -0.9440   25.6653  P.3 1 <0>  1.3711
  21   H1       19.7199    5.2930   23.6416    H 1 <0>  0.1500
  22   H2       18.4037    3.7847   25.1126    H 1 <0>  0.1500
  23   H3       15.7493    2.7248   24.1706    H 1 <0>  0.0000
  24   H4       14.2456    3.1796   24.9735    H 1 <0>  0.0000
  25   H5       15.3670    0.8207   25.5849    H 1 <0>  0.0000
  26   H6       16.7099    1.6668   27.8385    H 1 <0>  0.0000
  27   H7       15.2530    4.6350   26.5070    H 1 <0>  0.0000
  28   H8       18.8490    1.8078   26.4511    H 1 <0>  0.0000
  29   H9       17.8303    1.5497   25.0110    H 1 <0>  0.0000
  30  H10       19.6513    7.3434   22.3901    H 1 <0>  0.3999
  31  H11       18.2579    8.3979   22.2931    H 1 <0>  0.3999
  32  H12       14.3053    1.0090   27.5520    H 1 <0>  0.3999
@<TRIPOS>BOND
    1     1     2  1
    2     1     3  1
    3     2    11  1
    4     3    10  1
    5     3    12  1
    6     4    10  1
    7     4    11  1
    8     4    15  1
    9     5     6  1
   10     5     8  1
   11     6     7  1
   12     6    18  1
   13     7     9  1
   14     7    17  1
   15     8    11  1
   16     8    17  1
   17     9    19  1
   18    13    20  1
   19    14    20  1
   20    16    20  1
   21    19    20  1
   22     1    21  1
   23     2    22  1
   24     5    23  1
   25     5    24  1
   26     6    25  1
   27     7    26  1
   28     8    27  1
   29     9    28  1
   30     9    29  1
   31    12    30  1
   32    12    31  1
   33    18    32  1

@<TRIPOS>MOLECULE
MOL
   32   33    0    0    0
SMALL
USER_CHARGES


@<TRIPOS>ATOM
   1   C1       18.6465    5.4773   23.8625  C.2 1 <0> -0.1356
   2   C2       17.9443    4.6809   24.6659  C.2 1 <0> -0.0410
   3   C3       17.9490    6.6904   23.3618  C.2 1 <0>  0.4856
   4   C4       16.0005    6.1160   24.5313  C.2 1 <0>  0.8408
   5   C5       15.2818    2.8980   25.1471  C.3 1 <0>  0.0000
   6   C6       15.3989    1.7467   26.1190  C.3 1 <0>  0.2800
   7   C7       16.7283    2.0138   26.8111  C.3 1 <0>  0.2800
   8   C8       15.9599    4.0324   25.8978  C.3 1 <0>  0.5801
   9   C9       17.9106    1.3823   26.0876  C.3 1 <0>  0.2800
  10   N1       16.7133    6.9574   23.6943  N.2 1 <0> -0.6611
  11   N2       16.6345    4.9503   25.0273 N.am 1 <0> -0.4690
  12   N3       18.6395    7.5399   22.5289 N.pl3 1 <0> -0.8501
  13   O1       18.7676   -2.3524   26.1510  O.3 1 <0> -1.0332
  14   O2       20.3972   -0.3812   26.2318  O.3 1 <0> -1.0332
  15   O3       14.8362    6.3832   24.8337  O.2 1 <0> -0.5698
  16   O4       18.9314   -0.7527   24.1606  O.2 1 <0> -1.0332
  17   O5       16.9113    3.4427   26.7953  O.3 1 <0> -0.5601
  18   O6       14.3365    1.8092   27.0680  O.3 1 <0> -0.6802
  19   O7       17.9091   -0.0135   26.3390  O.3 1 <0> -0.5513
  20   P1       19.0969   -0.9440   25.6653  P.3 1 <0>  1.3711
  21   H1       19.6696    5.2742   23.5758    H 1 <0>  0.1500
  22   H2       18.3766    3.7753   25.0767    H 1 <0>  0.1500
  23   H3       15.7245    2.6808   24.1685    H 1 <0>  0.0000
  24   H4       14.2228    3.1341   24.9761    H 1 <0>  0.0000
  25   H5       15.3682    0.7930   25.6111    H 1 <0>  0.0000
  26   H6       16.7202    1.6807   27.8432    H 1 <0>  0.0000
  27   H7       15.2291    4.6184   26.4823    H 1 <0>  0.0000
  28   H8       18.8490    1.8078   26.4511    H 1 <0>  0.0000
  29   H9       17.8303    1.5497   25.0110    H 1 <0>  0.0000
  30  H10       19.5749    7.3068   22.2973    H 1 <0>  0.3999
  31  H11       18.1722    8.3484   22.1962    H 1 <0>  0.3999
  32  H12       14.3191    0.9993   27.5831    H 1 <0>  0.3999
@<TRIPOS>BOND
    1     1     2  1
    2     1     3  1
    3     2    11  1
    4     3    10  1
    5     3    12  1
    6     4    10  1
    7     4    11  1
    8     4    15  1
    9     5     6  1
   10     5     8  1
   11     6     7  1
   12     6    18  1
   13     7     9  1
   14     7    17  1
   15     8    11  1
   16     8    17  1
   17     9    19  1
   18    13    20  1
   19    14    20  1
   20    16    20  1
   21    19    20  1
   22     1    21  1
   23     2    22  1
   24     5    23  1
   25     5    24  1
   26     6    25  1
   27     7    26  1
   28     8    27  1
   29     9    28  1
   30     9    29  1
   31    12    30  1
   32    12    31  1
   33    18    32  1

@<TRIPOS>MOLECULE
MOL
   32   33    0    0    0
SMALL
USER_CHARGES


@<TRIPOS>ATOM
   1   C1       18.5963    5.4526   23.8020  C.2 1 <0> -0.1356
   2   C2       17.9066    4.6615   24.6213  C.2 1 <0> -0.0410
   3   C3       17.8852    6.6530   23.2901  C.2 1 <0>  0.4856
   4   C4       15.9500    6.0785   24.4814  C.2 1 <0>  0.8408
   5   C5       15.2626    2.8634   25.1458  C.3 1 <0>  0.0000
   6   C6       15.3963    1.7264   26.1324  C.3 1 <0>  0.2800
   7   C7       16.7283    2.0138   26.8111  C.3 1 <0>  0.2800
   8   C8       15.9365    4.0134   25.8762  C.3 1 <0>  0.5801
   9   C9       17.9106    1.3823   26.0876  C.3 1 <0>  0.2800
  10   N1       16.6497    6.9144   23.6280  N.2 1 <0> -0.6611
  11   N2       16.5972    4.9250   24.9885 N.am 1 <0> -0.4690
  12   N3       18.5626    7.4968   22.4408 N.pl3 1 <0> -0.8501
  13   O1       18.7676   -2.3524   26.1510  O.3 1 <0> -1.0332
  14   O2       20.3972   -0.3812   26.2318  O.3 1 <0> -1.0332
  15   O3       14.7857    6.3402   24.7887  O.2 1 <0> -0.5698
  16   O4       18.9314   -0.7527   24.1606  O.2 1 <0> -1.0332
  17   O5       16.8992    3.4439   26.7746  O.3 1 <0> -0.5601
  18   O6       14.3402    1.7930   27.0882  O.3 1 <0> -0.6802
  19   O7       17.9091   -0.0135   26.3390  O.3 1 <0> -0.5513
  20   P1       19.0969   -0.9440   25.6653  P.3 1 <0>  1.3711
  21   H1       19.6190    5.2541   23.5107    H 1 <0>  0.1500
  22   H2       18.3494    3.7651   25.0410    H 1 <0>  0.1500
  23   H3       15.7000    2.6366   24.1671    H 1 <0>  0.0000
  24   H4       14.2005    3.0884   24.9794    H 1 <0>  0.0000
  25   H5       15.3699    0.7657   25.6377    H 1 <0>  0.0000
  26   H6       16.7304    1.6946   27.8477    H 1 <0>  0.0000
  27   H7       15.2051    4.6013   26.4581    H 1 <0>  0.0000
  28   H8       18.8490    1.8078   26.4511    H 1 <0>  0.0000
  29   H9       17.8303    1.5497   25.0110    H 1 <0>  0.0000
  30  H10       19.4982    7.2683   22.2055    H 1 <0>  0.3999
  31  H11       18.0861    8.2968   22.1006    H 1 <0>  0.3999
  32  H12       14.3332    0.9900   27.6143    H 1 <0>  0.3999
@<TRIPOS>BOND
    1     1     2  1
    2     1     3  1
    3     2    11  1
    4     3    10  1
    5     3    12  1
    6     4    10  1
    7     4    11  1
    8     4    15  1
    9     5     6  1
   10     5     8  1
   11     6     7  1
   12     6    18  1
   13     7     9  1
   14     7    17  1
   15     8    11  1
   16     8    17  1
   17     9    19  1
   18    13    20  1
   19    14    20  1
   20    16    20  1
   21    19    20  1
   22     1    21  1
   23     2    22  1
   24     5    23  1
   25     5    24  1
   26     6    25  1
   27     7    26  1
   28     8    27  1
   29     9    28  1
   30     9    29  1
   31    12    30  1
   32    12    31  1
   33    18    32  1

@<TRIPOS>MOLECULE
MOL
   32   33    0    0    0
SMALL
USER_CHARGES


@<TRIPOS>ATOM
   1   C1       18.5459    5.4268   23.7423  C.2 1 <0> -0.1356
   2   C2       17.8687    4.6411   24.5771  C.2 1 <0> -0.0410
   3   C3       17.8211    6.6142   23.2193  C.2 1 <0>  0.4856
   4   C4       15.8994    6.0400   24.4324  C.2 1 <0>  0.8408
   5   C5       15.2436    2.8286   25.1452  C.3 1 <0>  0.0000
   6   C6       15.3939    1.7062   26.1461  C.3 1 <0>  0.2800
   7   C7       16.7283    2.0138   26.8111  C.3 1 <0>  0.2800
   8   C8       15.9132    3.9940   25.8551  C.3 1 <0>  0.5801
   9   C9       17.9106    1.3823   26.0876  C.3 1 <0>  0.2800
  10   N1       16.5860    6.8699   23.5627  N.2 1 <0> -0.6611
  11   N2       16.5599    4.8988   24.9504 N.am 1 <0> -0.4690
  12   N3       18.4854    7.4519   22.3538 N.pl3 1 <0> -0.8501
  13   O1       18.7676   -2.3524   26.1510  O.3 1 <0> -1.0332
  14   O2       20.3972   -0.3812   26.2318  O.3 1 <0> -1.0332
  15   O3       14.7352    6.2962   24.7446  O.2 1 <0> -0.5698
  16   O4       18.9314   -0.7527   24.1606  O.2 1 <0> -1.0332
  17   O5       16.8870    3.4446   26.7540  O.3 1 <0> -0.5601
  18   O6       14.3442    1.7771   27.1086  O.3 1 <0> -0.6802
  19   O7       17.9091   -0.0135   26.3390  O.3 1 <0> -0.5513
  20   P1       19.0969   -0.9440   25.6653  P.3 1 <0>  1.3711
  21   H1       19.5681    5.2327   23.4462    H 1 <0>  0.1500
  22   H2       18.3220    3.7542   25.0058    H 1 <0>  0.1500
  23   H3       15.6759    2.5921   24.1665    H 1 <0>  0.0000
  24   H4       14.1785    3.0425   24.9836    H 1 <0>  0.0000
  25   H5       15.3720    0.7387   25.6646    H 1 <0>  0.0000
  26   H6       16.7405    1.7088   27.8518    H 1 <0>  0.0000
  27   H7       15.1810    4.5836   26.4343    H 1 <0>  0.0000
  28   H8       18.8490    1.8078   26.4511    H 1 <0>  0.0000
  29   H9       17.8303    1.5497   25.0110    H 1 <0>  0.0000
  30  H10       19.4212    7.2280   22.1148    H 1 <0>  0.3999
  31  H11       17.9998    8.2432   22.0063    H 1 <0>  0.3999
  32  H12       14.3477    0.9813   27.6455    H 1 <0>  0.3999
@<TRIPOS>BOND
    1     1     2  1
    2     1     3  1
    3     2    11  1
    4     3    10  1
    5     3    12  1
    6     4    10  1
    7     4    11  1
    8     4    15  1
    9     5     6  1
   10     5     8  1
   11     6     7  1
   12     6    18  1
   13     7     9  1
   14     7    17  1
   15     8    11  1
   16     8    17  1
   17     9    19  1
   18    13    20  1
   19    14    20  1
   20    16    20  1
   21    19    20  1
   22     1    21  1
   23     2    22  1
   24     5    23  1
   25     5    24  1
   26     6    25  1
   27     7    26  1
   28     8    27  1
   29     9    28  1
   30     9    29  1
   31    12    30  1
   32    12    31  1
   33    18    32  1

@<TRIPOS>MOLECULE
MOL
   32   33    0    0    0
SMALL
USER_CHARGES


@<TRIPOS>ATOM
   1   C1       18.4953    5.3996   23.6833  C.2 1 <0> -0.1356
   2   C2       17.8307    4.6199   24.5336  C.2 1 <0> -0.0410
   3   C3       17.7569    6.5738   23.1496  C.2 1 <0>  0.4856
   4   C4       15.8488    6.0003   24.3843  C.2 1 <0>  0.8408
   5   C5       15.2250    2.7936   25.1453  C.3 1 <0>  0.0000
   6   C6       15.3918    1.6862   26.1600  C.3 1 <0>  0.2800
   7   C7       16.7283    2.0138   26.8111  C.3 1 <0>  0.2800
   8   C8       15.8899    3.9740   25.8344  C.3 1 <0>  0.5801
   9   C9       17.9106    1.3823   26.0876  C.3 1 <0>  0.2800
  10   N1       16.5222    6.8240   23.4984  N.2 1 <0> -0.6611
  11   N2       16.5225    4.8718   24.9128 N.am 1 <0> -0.4690
  12   N3       18.4079    7.4052   22.2680 N.pl3 1 <0> -0.8501
  13   O1       18.7676   -2.3524   26.1510  O.3 1 <0> -1.0332
  14   O2       20.3972   -0.3812   26.2318  O.3 1 <0> -1.0332
  15   O3       14.6848    6.2512   24.7015  O.2 1 <0> -0.5698
  16   O4       18.9314   -0.7527   24.1606  O.2 1 <0> -1.0332
  17   O5       16.8747    3.4449   26.7336  O.3 1 <0> -0.5601
  18   O6       14.3485    1.7615   27.1291  O.3 1 <0> -0.6802
  19   O7       17.9091   -0.0135   26.3390  O.3 1 <0> -0.5513
  20   P1       19.0969   -0.9440   25.6653  P.3 1 <0>  1.3711
  21   H1       19.5170    5.2100   23.3824    H 1 <0>  0.1500
  22   H2       18.2944    3.7426   24.9708    H 1 <0>  0.1500
  23   H3       15.6522    2.5475   24.1666    H 1 <0>  0.0000
  24   H4       14.1570    2.9966   24.9885    H 1 <0>  0.0000
  25   H5       15.3744    0.7121   25.6918    H 1 <0>  0.0000
  26   H6       16.7505    1.7230   27.8557    H 1 <0>  0.0000
  27   H7       15.1570    4.5654   26.4109    H 1 <0>  0.0000
  28   H8       18.8490    1.8078   26.4511    H 1 <0>  0.0000
  29   H9       17.8303    1.5497   25.0110    H 1 <0>  0.0000
  30  H10       19.3438    7.1857   22.0253    H 1 <0>  0.3999
  31  H11       17.9133    8.1877   21.9134    H 1 <0>  0.3999
  32  H12       14.3624    0.9732   27.6768    H 1 <0>  0.3999
@<TRIPOS>BOND
    1     1     2  1
    2     1     3  1
    3     2    11  1
    4     3    10  1
    5     3    12  1
    6     4    10  1
    7     4    11  1
    8     4    15  1
    9     5     6  1
   10     5     8  1
   11     6     7  1
   12     6    18  1
   13     7     9  1
   14     7    17  1
   15     8    11  1
   16     8    17  1
   17     9    19  1
   18    13    20  1
   19    14    20  1
   20    16    20  1
   21    19    20  1
   22     1    21  1
   23     2    22  1
   24     5    23  1
   25     5    24  1
   26     6    25  1
   27     7    26  1
   28     8    27  1
   29     9    28  1
   30     9    29  1
   31    12    30  1
   32    12    31  1
   33    18    32  1

@<TRIPOS>MOLECULE
MOL
   32   33    0    0    0
SMALL
USER_CHARGES


@<TRIPOS>ATOM
   1   C1       18.4445    5.3713   23.6250  C.2 1 <0> -0.1356
   2   C2       17.7925    4.5977   24.4906  C.2 1 <0> -0.0410
   3   C3       17.6925    6.5320   23.0809  C.2 1 <0>  0.4856
   4   C4       15.7982    5.9596   24.3371  C.2 1 <0>  0.8408
   5   C5       15.2066    2.7585   25.1459  C.3 1 <0>  0.0000
   6   C6       15.3899    1.6664   26.1743  C.3 1 <0>  0.2800
   7   C7       16.7283    2.0138   26.8111  C.3 1 <0>  0.2800
   8   C8       15.8665    3.9536   25.8141  C.3 1 <0>  0.5801
   9   C9       17.9106    1.3823   26.0876  C.3 1 <0>  0.2800
  10   N1       16.4583    6.7767   23.4353  N.2 1 <0> -0.6611
  11   N2       16.4850    4.8439   24.8759 N.am 1 <0> -0.4690
  12   N3       18.3303    7.3567   22.1834 N.pl3 1 <0> -0.8501
  13   O1       18.7676   -2.3524   26.1510  O.3 1 <0> -1.0332
  14   O2       20.3972   -0.3812   26.2318  O.3 1 <0> -1.0332
  15   O3       14.6344    6.2052   24.6594  O.2 1 <0> -0.5698
  16   O4       18.9314   -0.7527   24.1606  O.2 1 <0> -1.0332
  17   O5       16.8622    3.4449   26.7131  O.3 1 <0> -0.5601
  18   O6       14.3530    1.7463   27.1498  O.3 1 <0> -0.6802
  19   O7       17.9091   -0.0135   26.3390  O.3 1 <0> -0.5513
  20   P1       19.0969   -0.9440   25.6653  P.3 1 <0>  1.3711
  21   H1       19.4655    5.1860   23.3192    H 1 <0>  0.1500
  22   H2       18.2667    3.7303   24.9362    H 1 <0>  0.1500
  23   H3       15.6288    2.5026   24.1676    H 1 <0>  0.0000
  24   H4       14.1358    2.9505   24.9941    H 1 <0>  0.0000
  25   H5       15.3773    0.6859   25.7194    H 1 <0>  0.0000
  26   H6       16.7604    1.7374   27.8594    H 1 <0>  0.0000
  27   H7       15.1330    4.5467   26.3879    H 1 <0>  0.0000
  28   H8       18.8490    1.8078   26.4511    H 1 <0>  0.0000
  29   H9       17.8303    1.5497   25.0110    H 1 <0>  0.0000
  30  H10       19.2662    7.1417   21.9369    H 1 <0>  0.3999
  31  H11       17.8266    8.1302   21.8219    H 1 <0>  0.3999
  32  H12       14.3775    0.9655   27.7080    H 1 <0>  0.3999
@<TRIPOS>BOND
    1     1     2  1
    2     1     3  1
    3     2    11  1
    4     3    10  1
    5     3    12  1
    6     4    10  1
    7     4    11  1
    8     4    15  1
    9     5     6  1
   10     5     8  1
   11     6     7  1
   12     6    18  1
   13     7     9  1
   14     7    17  1
   15     8    11  1
   16     8    17  1
   17     9    19  1
   18    13    20  1
   19    14    20  1
   20    16    20  1
   21    19    20  1
   22     1    21  1
   23     2    22  1
   24     5    23  1
   25     5    24  1
   26     6    25  1
   27     7    26  1
   28     8    27  1
   29     9    28  1
   30     9    29  1
   31    12    30  1
   32    12    31  1
   33    18    32  1

@<TRIPOS>MOLECULE
MOL
   32   33    0    0    0
SMALL
USER_CHARGES


@<TRIPOS>ATOM
   1   C1       18.3935    5.3418   23.5675  C.2 1 <0> -0.1356
   2   C2       17.7542    4.5746   24.4482  C.2 1 <0> -0.0410
   3   C3       17.6280    6.4888   23.0132  C.2 1 <0>  0.4856
   4   C4       15.7476    5.9179   24.2909  C.2 1 <0>  0.8408
   5   C5       15.1885    2.7233   25.1471  C.3 1 <0>  0.0000
   6   C6       15.3883    1.6468   26.1888  C.3 1 <0>  0.2800
   7   C7       16.7283    2.0138   26.8111  C.3 1 <0>  0.2800
   8   C8       15.8433    3.9327   25.7943  C.3 1 <0>  0.5801
   9   C9       17.9106    1.3823   26.0876  C.3 1 <0>  0.2800
  10   N1       16.3943    6.7280   23.3733  N.2 1 <0> -0.6611
  11   N2       16.4475    4.8153   24.8397 N.am 1 <0> -0.4690
  12   N3       18.2524    7.3064   22.1001 N.pl3 1 <0> -0.8501
  13   O1       18.7676   -2.3524   26.1510  O.3 1 <0> -1.0332
  14   O2       20.3972   -0.3812   26.2318  O.3 1 <0> -1.0332
  15   O3       14.5841    6.1582   24.6182  O.2 1 <0> -0.5698
  16   O4       18.9314   -0.7527   24.1606  O.2 1 <0> -1.0332
  17   O5       16.8495    3.4445   26.6928  O.3 1 <0> -0.5601
  18   O6       14.3578    1.7313   27.1707  O.3 1 <0> -0.6802
  19   O7       17.9091   -0.0135   26.3390  O.3 1 <0> -0.5513
  20   P1       19.0969   -0.9440   25.6653  P.3 1 <0>  1.3711
  21   H1       19.4138    5.1608   23.2568    H 1 <0>  0.1500
  22   H2       18.2388    3.7173   24.9021    H 1 <0>  0.1500
  23   H3       15.6058    2.4576   24.1693    H 1 <0>  0.0000
  24   H4       14.1151    2.9044   25.0006    H 1 <0>  0.0000
  25   H5       15.3807    0.6601   25.7474    H 1 <0>  0.0000
  26   H6       16.7703    1.7520   27.8628    H 1 <0>  0.0000
  27   H7       15.1089    4.5275   26.3653    H 1 <0>  0.0000
  28   H8       18.8490    1.8078   26.4511    H 1 <0>  0.0000
  29   H9       17.8303    1.5497   25.0110    H 1 <0>  0.0000
  30  H10       19.1882    7.0958   21.8496    H 1 <0>  0.3999
  31  H11       17.7397    8.0707   21.7318    H 1 <0>  0.3999
  32  H12       14.3928    0.9585   27.7392    H 1 <0>  0.3999
@<TRIPOS>BOND
    1     1     2  1
    2     1     3  1
    3     2    11  1
    4     3    10  1
    5     3    12  1
    6     4    10  1
    7     4    11  1
    8     4    15  1
    9     5     6  1
   10     5     8  1
   11     6     7  1
   12     6    18  1
   13     7     9  1
   14     7    17  1
   15     8    11  1
   16     8    17  1
   17     9    19  1
   18    13    20  1
   19    14    20  1
   20    16    20  1
   21    19    20  1
   22     1    21  1
   23     2    22  1
   24     5    23  1
   25     5    24  1
   26     6    25  1
   27     7    26  1
   28     8    27  1
   29     9    28  1
   30     9    29  1
   31    12    30  1
   32    12    31  1
   33    18    32  1

@<TRIPOS>MOLECULE
MOL
   32   33    0    0    0
SMALL
USER_CHARGES


@<TRIPOS>ATOM
   1   C1       18.3424    5.3110   23.5107  C.2 1 <0> -0.1356
   2   C2       17.7159    4.5507   24.4063  C.2 1 <0> -0.0410
   3   C3       17.5634    6.4441   22.9466  C.2 1 <0>  0.4856
   4   C4       15.6970    5.8751   24.2455  C.2 1 <0>  0.8408
   5   C5       15.1708    2.6879   25.1489  C.3 1 <0>  0.0000
   6   C6       15.3870    1.6273   26.2036  C.3 1 <0>  0.2800
   7   C7       16.7283    2.0138   26.8111  C.3 1 <0>  0.2800
   8   C8       15.8200    3.9114   25.7750  C.3 1 <0>  0.5801
   9   C9       17.9106    1.3823   26.0876  C.3 1 <0>  0.2800
  10   N1       16.3304    6.6780   23.3124  N.2 1 <0> -0.6611
  11   N2       16.4101    4.7859   24.8041 N.am 1 <0> -0.4690
  12   N3       18.1743    7.2543   22.0180 N.pl3 1 <0> -0.8501
  13   O1       18.7676   -2.3524   26.1510  O.3 1 <0> -1.0332
  14   O2       20.3972   -0.3812   26.2318  O.3 1 <0> -1.0332
  15   O3       14.5339    6.1102   24.5781  O.2 1 <0> -0.5698
  16   O4       18.9314   -0.7527   24.1606  O.2 1 <0> -1.0332
  17   O5       16.8368    3.4437   26.6726  O.3 1 <0> -0.5601
  18   O6       14.3629    1.7167   27.1918  O.3 1 <0> -0.6802
  19   O7       17.9091   -0.0135   26.3390  O.3 1 <0> -0.5513
  20   P1       19.0969   -0.9440   25.6653  P.3 1 <0>  1.3711
  21   H1       19.3619    5.1343   23.1951    H 1 <0>  0.1500
  22   H2       18.2108    3.7036   24.8682    H 1 <0>  0.1500
  23   H3       15.5832    2.4125   24.1718    H 1 <0>  0.0000
  24   H4       14.0949    2.8581   25.0078    H 1 <0>  0.0000
  25   H5       15.3844    0.6348   25.7756    H 1 <0>  0.0000
  26   H6       16.7800    1.7666   27.8659    H 1 <0>  0.0000
  27   H7       15.0848    4.5078   26.3432    H 1 <0>  0.0000
  28   H8       18.8490    1.8078   26.4511    H 1 <0>  0.0000
  29   H9       17.8303    1.5497   25.0110    H 1 <0>  0.0000
  30  H10       19.1101    7.0480   21.7636    H 1 <0>  0.3999
  31  H11       17.6527    8.0094   21.6431    H 1 <0>  0.3999
  32  H12       14.4084    0.9520   27.7704    H 1 <0>  0.3999
@<TRIPOS>BOND
    1     1     2  1
    2     1     3  1
    3     2    11  1
    4     3    10  1
    5     3    12  1
    6     4    10  1
    7     4    11  1
    8     4    15  1
    9     5     6  1
   10     5     8  1
   11     6     7  1
   12     6    18  1
   13     7     9  1
   14     7    17  1
   15     8    11  1
   16     8    17  1
   17     9    19  1
   18    13    20  1
   19    14    20  1
   20    16    20  1
   21    19    20  1
   22     1    21  1
   23     2    22  1
   24     5    23  1
   25     5    24  1
   26     6    25  1
   27     7    26  1
   28     8    27  1
   29     9    28  1
   30     9    29  1
   31    12    30  1
   32    12    31  1
   33    18    32  1

@<TRIPOS>MOLECULE
MOL
   32   33    0    0    0
SMALL
USER_CHARGES


@<TRIPOS>ATOM
   1   C1       18.2911    5.2791   23.4548  C.2 1 <0> -0.1356
   2   C2       17.6774    4.5259   24.3651  C.2 1 <0> -0.0410
   3   C3       17.4986    6.3979   22.8811  C.2 1 <0>  0.4856
   4   C4       15.6465    5.8313   24.2012  C.2 1 <0>  0.8408
   5   C5       15.1533    2.6524   25.1514  C.3 1 <0>  0.0000
   6   C6       15.3859    1.6081   26.2187  C.3 1 <0>  0.2800
   7   C7       16.7283    2.0138   26.8111  C.3 1 <0>  0.2800
   8   C8       15.7968    3.8896   25.7560  C.3 1 <0>  0.5801
   9   C9       17.9106    1.3823   26.0876  C.3 1 <0>  0.2800
  10   N1       16.2664    6.6267   23.2527  N.2 1 <0> -0.6611
  11   N2       16.3725    4.7556   24.7692 N.am 1 <0> -0.4690
  12   N3       18.0961    7.2005   21.9372 N.pl3 1 <0> -0.8501
  13   O1       18.7676   -2.3524   26.1510  O.3 1 <0> -1.0332
  14   O2       20.3972   -0.3812   26.2318  O.3 1 <0> -1.0332
  15   O3       14.4839    6.0613   24.5390  O.2 1 <0> -0.5698
  16   O4       18.9314   -0.7527   24.1606  O.2 1 <0> -1.0332
  17   O5       16.8238    3.4426   26.6525  O.3 1 <0> -0.5601
  18   O6       14.3682    1.7024   27.2130  O.3 1 <0> -0.6802
  19   O7       17.9091   -0.0135   26.3390  O.3 1 <0> -0.5513
  20   P1       19.0969   -0.9440   25.6653  P.3 1 <0>  1.3711
  21   H1       19.3098    5.1065   23.1341    H 1 <0>  0.1500
  22   H2       18.1827    3.6892   24.8348    H 1 <0>  0.1500
  23   H3       15.5610    2.3671   24.1751    H 1 <0>  0.0000
  24   H4       14.0750    2.8119   25.0158    H 1 <0>  0.0000
  25   H5       15.3885    0.6098   25.8042    H 1 <0>  0.0000
  26   H6       16.7896    1.7814   27.8687    H 1 <0>  0.0000
  27   H7       15.0608    4.4876   26.3216    H 1 <0>  0.0000
  28   H8       18.8490    1.8078   26.4511    H 1 <0>  0.0000
  29   H9       17.8303    1.5497   25.0110    H 1 <0>  0.0000
  30  H10       19.0317    6.9985   21.6788    H 1 <0>  0.3999
  31  H11       17.5655    7.9460   21.5560    H 1 <0>  0.3999
  32  H12       14.4243    0.9460   27.8015    H 1 <0>  0.3999
@<TRIPOS>BOND
    1     1     2  1
    2     1     3  1
    3     2    11  1
    4     3    10  1
    5     3    12  1
    6     4    10  1
    7     4    11  1
    8     4    15  1
    9     5     6  1
   10     5     8  1
   11     6     7  1
   12     6    18  1
   13     7     9  1
   14     7    17  1
   15     8    11  1
   16     8    17  1
   17     9    19  1
   18    13    20  1
   19    14    20  1
   20    16    20  1
   21    19    20  1
   22     1    21  1
   23     2    22  1
   24     5    23  1
   25     5    24  1
   26     6    25  1
   27     7    26  1
   28     8    27  1
   29     9    28  1
   30     9    29  1
   31    12    30  1
   32    12    31  1
   33    18    32  1

@<TRIPOS>MOLECULE
MOL
   32   33    0    0    0
SMALL
USER_CHARGES


@<TRIPOS>ATOM
   1   C1       18.2397    5.2460   23.3996  C.2 1 <0> -0.1356
   2   C2       17.6388    4.5001   24.3245  C.2 1 <0> -0.0410
   3   C3       17.4338    6.3504   22.8167  C.2 1 <0>  0.4856
   4   C4       15.5959    5.7864   24.1578  C.2 1 <0>  0.8408
   5   C5       15.1362    2.6168   25.1544  C.3 1 <0>  0.0000
   6   C6       15.3851    1.5890   26.2340  C.3 1 <0>  0.2800
   7   C7       16.7283    2.0138   26.8111  C.3 1 <0>  0.2800
   8   C8       15.7737    3.8673   25.7376  C.3 1 <0>  0.5801
   9   C9       17.9106    1.3823   26.0876  C.3 1 <0>  0.2800
  10   N1       16.2024    6.5740   23.1941  N.2 1 <0> -0.6611
  11   N2       16.3350    4.7246   24.7349 N.am 1 <0> -0.4690
  12   N3       18.0178    7.1449   21.8577 N.pl3 1 <0> -0.8501
  13   O1       18.7676   -2.3524   26.1510  O.3 1 <0> -1.0332
  14   O2       20.3972   -0.3812   26.2318  O.3 1 <0> -1.0332
  15   O3       14.4340    6.0115   24.5009  O.2 1 <0> -0.5698
  16   O4       18.9314   -0.7527   24.1606  O.2 1 <0> -1.0332
  17   O5       16.8108    3.4410   26.6325  O.3 1 <0> -0.5601
  18   O6       14.3739    1.6885   27.2344  O.3 1 <0> -0.6802
  19   O7       17.9091   -0.0135   26.3390  O.3 1 <0> -0.5513
  20   P1       19.0969   -0.9440   25.6653  P.3 1 <0>  1.3711
  21   H1       19.2574    5.0775   23.0740    H 1 <0>  0.1500
  22   H2       18.1544    3.6742   24.8018    H 1 <0>  0.1500
  23   H3       15.5392    2.3217   24.1791    H 1 <0>  0.0000
  24   H4       14.0557    2.7655   25.0246    H 1 <0>  0.0000
  25   H5       15.3931    0.5853   25.8330    H 1 <0>  0.0000
  26   H6       16.7992    1.7963   27.8713    H 1 <0>  0.0000
  27   H7       15.0367    4.4669   26.3003    H 1 <0>  0.0000
  28   H8       18.8490    1.8078   26.4511    H 1 <0>  0.0000
  29   H9       17.8303    1.5497   25.0110    H 1 <0>  0.0000
  30  H10       18.9532    6.9472   21.5952    H 1 <0>  0.3999
  31  H11       17.4783    7.8809   21.4703    H 1 <0>  0.3999
  32  H12       14.4404    0.9406   27.8326    H 1 <0>  0.3999
@<TRIPOS>BOND
    1     1     2  1
    2     1     3  1
    3     2    11  1
    4     3    10  1
    5     3    12  1
    6     4    10  1
    7     4    11  1
    8     4    15  1
    9     5     6  1
   10     5     8  1
   11     6     7  1
   12     6    18  1
   13     7     9  1
   14     7    17  1
   15     8    11  1
   16     8    17  1
   17     9    19  1
   18    13    20  1
   19    14    20  1
   20    16    20  1
   21    19    20  1
   22     1    21  1
   23     2    22  1
   24     5    23  1
   25     5    24  1
   26     6    25  1
   27     7    26  1
   28     8    27  1
   29     9    28  1
   30     9    29  1
   31    12    30  1
   32    12    31  1
   33    18    32  1

@<TRIPOS>MOLECULE
MOL
   32   33    0    0    0
SMALL
USER_CHARGES


@<TRIPOS>ATOM
   1   C1       18.1882    5.2117   23.3453  C.2 1 <0> -0.1356
   2   C2       17.6002    4.4736   24.2846  C.2 1 <0> -0.0410
   3   C3       17.3689    6.3014   22.7534  C.2 1 <0>  0.4856
   4   C4       15.5455    5.7406   24.1153  C.2 1 <0>  0.8408
   5   C5       15.1193    2.5812   25.1581  C.3 1 <0>  0.0000
   6   C6       15.3846    1.5702   26.2496  C.3 1 <0>  0.2800
   7   C7       16.7283    2.0138   26.8111  C.3 1 <0>  0.2800
   8   C8       15.7505    3.8447   25.7196  C.3 1 <0>  0.5801
   9   C9       17.9106    1.3823   26.0876  C.3 1 <0>  0.2800
  10   N1       16.1384    6.5199   23.1368  N.2 1 <0> -0.6611
  11   N2       16.2976    4.6929   24.7014 N.am 1 <0> -0.4690
  12   N3       17.9394    7.0876   21.7795 N.pl3 1 <0> -0.8501
  13   O1       18.7676   -2.3524   26.1510  O.3 1 <0> -1.0332
  14   O2       20.3972   -0.3812   26.2318  O.3 1 <0> -1.0332
  15   O3       14.3842    5.9607   24.4639  O.2 1 <0> -0.5698
  16   O4       18.9314   -0.7527   24.1606  O.2 1 <0> -1.0332
  17   O5       16.7976    3.4391   26.6127  O.3 1 <0> -0.5601
  18   O6       14.3798    1.6749   27.2559  O.3 1 <0> -0.6802
  19   O7       17.9091   -0.0135   26.3390  O.3 1 <0> -0.5513
  20   P1       19.0969   -0.9440   25.6653  P.3 1 <0>  1.3711
  21   H1       19.2049    5.0472   23.0145    H 1 <0>  0.1500
  22   H2       18.1261    3.6584   24.7692    H 1 <0>  0.1500
  23   H3       15.5178    2.2761   24.1839    H 1 <0>  0.0000
  24   H4       14.0367    2.7191   25.0341    H 1 <0>  0.0000
  25   H5       15.3981    0.5612   25.8622    H 1 <0>  0.0000
  26   H6       16.8086    1.8113   27.8736    H 1 <0>  0.0000
  27   H7       15.0127    4.4457   26.2796    H 1 <0>  0.0000
  28   H8       18.8490    1.8078   26.4511    H 1 <0>  0.0000
  29   H9       17.8303    1.5497   25.0110    H 1 <0>  0.0000
  30  H10       18.8745    6.8941   21.5129    H 1 <0>  0.3999
  31  H11       17.3910    7.8138   21.3862    H 1 <0>  0.3999
  32  H12       14.4569    0.9358   27.8637    H 1 <0>  0.3999
@<TRIPOS>BOND
    1     1     2  1
    2     1     3  1
    3     2    11  1
    4     3    10  1
    5     3    12  1
    6     4    10  1
    7     4    11  1
    8     4    15  1
    9     5     6  1
   10     5     8  1
   11     6     7  1
   12     6    18  1
   13     7     9  1
   14     7    17  1
   15     8    11  1
   16     8    17  1
   17     9    19  1
   18    13    20  1
   19    14    20  1
   20    16    20  1
   21    19    20  1
   22     1    21  1
   23     2    22  1
   24     5    23  1
   25     5    24  1
   26     6    25  1
   27     7    26  1
   28     8    27  1
   29     9    28  1
   30     9    29  1
   31    12    30  1
   32    12    31  1
   33    18    32  1

@<TRIPOS>MOLECULE
MOL
   32   33    0    0    0
SMALL
USER_CHARGES


@<TRIPOS>ATOM
   1   C1       18.1365    5.1763   23.2919  C.2 1 <0> -0.1356
   2   C2       17.5615    4.4462   24.2453  C.2 1 <0> -0.0410
   3   C3       17.3040    6.2510   22.6913  C.2 1 <0>  0.4856
   4   C4       15.4951    5.6938   24.0739  C.2 1 <0>  0.8408
   5   C5       15.1028    2.5454   25.1623  C.3 1 <0>  0.0000
   6   C6       15.3844    1.5516   26.2655  C.3 1 <0>  0.2800
   7   C7       16.7283    2.0138   26.8111  C.3 1 <0>  0.2800
   8   C8       15.7275    3.8216   25.7022  C.3 1 <0>  0.5801
   9   C9       17.9106    1.3823   26.0876  C.3 1 <0>  0.2800
  10   N1       16.0745    6.4646   23.0806  N.2 1 <0> -0.6611
  11   N2       16.2601    4.6603   24.6686 N.am 1 <0> -0.4690
  12   N3       17.8609    7.0287   21.7027 N.pl3 1 <0> -0.8501
  13   O1       18.7676   -2.3524   26.1510  O.3 1 <0> -1.0332
  14   O2       20.3972   -0.3812   26.2318  O.3 1 <0> -1.0332
  15   O3       14.3346    5.9090   24.4279  O.2 1 <0> -0.5698
  16   O4       18.9314   -0.7527   24.1606  O.2 1 <0> -1.0332
  17   O5       16.7843    3.4368   26.5929  O.3 1 <0> -0.5601
  18   O6       14.3859    1.6616   27.2775  O.3 1 <0> -0.6802
  19   O7       17.9091   -0.0135   26.3390  O.3 1 <0> -0.5513
  20   P1       19.0969   -0.9440   25.6653  P.3 1 <0>  1.3711
  21   H1       19.1522    5.0157   22.9559    H 1 <0>  0.1500
  22   H2       18.0976    3.6420   24.7370    H 1 <0>  0.1500
  23   H3       15.4968    2.2304   24.1895    H 1 <0>  0.0000
  24   H4       14.0182    2.6727   25.0444    H 1 <0>  0.0000
  25   H5       15.4034    0.5375   25.8916    H 1 <0>  0.0000
  26   H6       16.8179    1.8264   27.8756    H 1 <0>  0.0000
  27   H7       14.9887    4.4240   26.2593    H 1 <0>  0.0000
  28   H8       18.8490    1.8078   26.4511    H 1 <0>  0.0000
  29   H9       17.8303    1.5497   25.0110    H 1 <0>  0.0000
  30  H10       18.7956    6.8392   21.4319    H 1 <0>  0.3999
  31  H11       17.3036    7.7449   21.3036    H 1 <0>  0.3999
  32  H12       14.4735    0.9315   27.8947    H 1 <0>  0.3999
@<TRIPOS>BOND
    1     1     2  1
    2     1     3  1
    3     2    11  1
    4     3    10  1
    5     3    12  1
    6     4    10  1
    7     4    11  1
    8     4    15  1
    9     5     6  1
   10     5     8  1
   11     6     7  1
   12     6    18  1
   13     7     9  1
   14     7    17  1
   15     8    11  1
   16     8    17  1
   17     9    19  1
   18    13    20  1
   19    14    20  1
   20    16    20  1
   21    19    20  1
   22     1    21  1
   23     2    22  1
   24     5    23  1
   25     5    24  1
   26     6    25  1
   27     7    26  1
   28     8    27  1
   29     9    28  1
   30     9    29  1
   31    12    30  1
   32    12    31  1
   33    18    32  1

@<TRIPOS>MOLECULE
MOL
   32   33    0    0    0
SMALL
USER_CHARGES


@<TRIPOS>ATOM
   1   C1       18.0848    5.1397   23.2393  C.2 1 <0> -0.1356
   2   C2       17.5227    4.4179   24.2066  C.2 1 <0> -0.0410
   3   C3       17.2391    6.1993   22.6303  C.2 1 <0>  0.4856
   4   C4       15.4449    5.6460   24.0335  C.2 1 <0>  0.8408
   5   C5       15.0867    2.5095   25.1672  C.3 1 <0>  0.0000
   6   C6       15.3844    1.5331   26.2816  C.3 1 <0>  0.2800
   7   C7       16.7283    2.0138   26.8111  C.3 1 <0>  0.2800
   8   C8       15.7045    3.7980   25.6851  C.3 1 <0>  0.5801
   9   C9       17.9106    1.3823   26.0876  C.3 1 <0>  0.2800
  10   N1       16.0107    6.4080   23.0256  N.2 1 <0> -0.6611
  11   N2       16.2227    4.6271   24.6365 N.am 1 <0> -0.4690
  12   N3       17.7823    6.9680   21.6272 N.pl3 1 <0> -0.8501
  13   O1       18.7676   -2.3524   26.1510  O.3 1 <0> -1.0332
  14   O2       20.3972   -0.3812   26.2318  O.3 1 <0> -1.0332
  15   O3       14.2851    5.8564   24.3930  O.2 1 <0> -0.5698
  16   O4       18.9314   -0.7527   24.1606  O.2 1 <0> -1.0332
  17   O5       16.7708    3.4341   26.5733  O.3 1 <0> -0.5601
  18   O6       14.3924    1.6487   27.2993  O.3 1 <0> -0.6802
  19   O7       17.9091   -0.0135   26.3390  O.3 1 <0> -0.5513
  20   P1       19.0969   -0.9440   25.6653  P.3 1 <0>  1.3711
  21   H1       19.0993    4.9829   22.8981    H 1 <0>  0.1500
  22   H2       18.0691    3.6250   24.7053    H 1 <0>  0.1500
  23   H3       15.4763    2.1847   24.1959    H 1 <0>  0.0000
  24   H4       14.0002    2.6263   25.0555    H 1 <0>  0.0000
  25   H5       15.4092    0.5143   25.9214    H 1 <0>  0.0000
  26   H6       16.8271    1.8416   27.8774    H 1 <0>  0.0000
  27   H7       14.9648    4.4019   26.2394    H 1 <0>  0.0000
  28   H8       18.8490    1.8078   26.4511    H 1 <0>  0.0000
  29   H9       17.8303    1.5497   25.0110    H 1 <0>  0.0000
  30  H10       18.7166    6.7826   21.3522    H 1 <0>  0.3999
  31  H11       17.2162    7.6741   21.2226    H 1 <0>  0.3999
  32  H12       14.4905    0.9277   27.9257    H 1 <0>  0.3999
@<TRIPOS>BOND
    1     1     2  1
    2     1     3  1
    3     2    11  1
    4     3    10  1
    5     3    12  1
    6     4    10  1
    7     4    11  1
    8     4    15  1
    9     5     6  1
   10     5     8  1
   11     6     7  1
   12     6    18  1
   13     7     9  1
   14     7    17  1
   15     8    11  1
   16     8    17  1
   17     9    19  1
   18    13    20  1
   19    14    20  1
   20    16    20  1
   21    19    20  1
   22     1    21  1
   23     2    22  1
   24     5    23  1
   25     5    24  1
   26     6    25  1
   27     7    26  1
   28     8    27  1
   29     9    28  1
   30     9    29  1
   31    12    30  1
   32    12    31  1
   33    18    32  1

@<TRIPOS>MOLECULE
MOL
   32   33    0    0    0
SMALL
USER_CHARGES


@<TRIPOS>ATOM
   1   C1       18.0330    5.1020   23.1875  C.2 1 <0> -0.1356
   2   C2       17.4839    4.3888   24.1687  C.2 1 <0> -0.0410
   3   C3       17.1741    6.1462   22.5705  C.2 1 <0>  0.4856
   4   C4       15.3947    5.5973   23.9941  C.2 1 <0>  0.8408
   5   C5       15.0708    2.4736   25.1727  C.3 1 <0>  0.0000
   6   C6       15.3847    1.5149   26.2980  C.3 1 <0>  0.2800
   7   C7       16.7283    2.0138   26.8111  C.3 1 <0>  0.2800
   8   C8       15.6816    3.7741   25.6686  C.3 1 <0>  0.5801
   9   C9       17.9106    1.3823   26.0876  C.3 1 <0>  0.2800
  10   N1       15.9469    6.3502   22.9719  N.2 1 <0> -0.6611
  11   N2       16.1853    4.5930   24.6051 N.am 1 <0> -0.4690
  12   N3       17.7037    6.9057   21.5532 N.pl3 1 <0> -0.8501
  13   O1       18.7676   -2.3524   26.1510  O.3 1 <0> -1.0332
  14   O2       20.3972   -0.3812   26.2318  O.3 1 <0> -1.0332
  15   O3       14.2359    5.8030   24.3592  O.2 1 <0> -0.5698
  16   O4       18.9314   -0.7527   24.1606  O.2 1 <0> -1.0332
  17   O5       16.7573    3.4310   26.5538  O.3 1 <0> -0.5601
  18   O6       14.3990    1.6361   27.3212  O.3 1 <0> -0.6802
  19   O7       17.9091   -0.0135   26.3390  O.3 1 <0> -0.5513
  20   P1       19.0969   -0.9440   25.6653  P.3 1 <0>  1.3711
  21   H1       19.0464    4.9489   22.8412    H 1 <0>  0.1500
  22   H2       18.0404    3.6072   24.6740    H 1 <0>  0.1500
  23   H3       15.4561    2.1388   24.2030    H 1 <0>  0.0000
  24   H4       13.9827    2.5800   25.0673    H 1 <0>  0.0000
  25   H5       15.4154    0.4915   25.9514    H 1 <0>  0.0000
  26   H6       16.8362    1.8569   27.8788    H 1 <0>  0.0000
  27   H7       14.9409    4.3793   26.2201    H 1 <0>  0.0000
  28   H8       18.8490    1.8078   26.4511    H 1 <0>  0.0000
  29   H9       17.8303    1.5497   25.0110    H 1 <0>  0.0000
  30  H10       18.6375    6.7243   21.2739    H 1 <0>  0.3999
  31  H11       17.1289    7.6015   21.1431    H 1 <0>  0.3999
  32  H12       14.5077    0.9246   27.9565    H 1 <0>  0.3999
@<TRIPOS>BOND
    1     1     2  1
    2     1     3  1
    3     2    11  1
    4     3    10  1
    5     3    12  1
    6     4    10  1
    7     4    11  1
    8     4    15  1
    9     5     6  1
   10     5     8  1
   11     6     7  1
   12     6    18  1
   13     7     9  1
   14     7    17  1
   15     8    11  1
   16     8    17  1
   17     9    19  1
   18    13    20  1
   19    14    20  1
   20    16    20  1
   21    19    20  1
   22     1    21  1
   23     2    22  1
   24     5    23  1
   25     5    24  1
   26     6    25  1
   27     7    26  1
   28     8    27  1
   29     9    28  1
   30     9    29  1
   31    12    30  1
   32    12    31  1
   33    18    32  1

@<TRIPOS>MOLECULE
MOL
   32   33    0    0    0
SMALL
USER_CHARGES


@<TRIPOS>ATOM
   1   C1       17.9812    5.0632   23.1367  C.2 1 <0> -0.1356
   2   C2       17.4451    4.3588   24.1314  C.2 1 <0> -0.0410
   3   C3       17.1092    6.0918   22.5119  C.2 1 <0>  0.4856
   4   C4       15.3447    5.5476   23.9557  C.2 1 <0>  0.8408
   5   C5       15.0553    2.4377   25.1787  C.3 1 <0>  0.0000
   6   C6       15.3852    1.4969   26.3146  C.3 1 <0>  0.2800
   7   C7       16.7283    2.0138   26.8111  C.3 1 <0>  0.2800
   8   C8       15.6588    3.7497   25.6526  C.3 1 <0>  0.5801
   9   C9       17.9106    1.3823   26.0876  C.3 1 <0>  0.2800
  10   N1       15.8832    6.2911   22.9195  N.2 1 <0> -0.6611
  11   N2       16.1480    4.5583   24.5745 N.am 1 <0> -0.4690
  12   N3       17.6251    6.8417   21.4806 N.pl3 1 <0> -0.8501
  13   O1       18.7676   -2.3524   26.1510  O.3 1 <0> -1.0332
  14   O2       20.3972   -0.3812   26.2318  O.3 1 <0> -1.0332
  15   O3       14.1868    5.7487   24.3264  O.2 1 <0> -0.5698
  16   O4       18.9314   -0.7527   24.1606  O.2 1 <0> -1.0332
  17   O5       16.7436    3.4276   26.5345  O.3 1 <0> -0.5601
  18   O6       14.4060    1.6239   27.3433  O.3 1 <0> -0.6802
  19   O7       17.9091   -0.0135   26.3390  O.3 1 <0> -0.5513
  20   P1       19.0969   -0.9440   25.6653  P.3 1 <0>  1.3711
  21   H1       18.9932    4.9138   22.7851    H 1 <0>  0.1500
  22   H2       18.0117    3.5888   24.6431    H 1 <0>  0.1500
  23   H3       15.4365    2.0929   24.2109    H 1 <0>  0.0000
  24   H4       13.9656    2.5336   25.0799    H 1 <0>  0.0000
  25   H5       15.4220    0.4692   25.9816    H 1 <0>  0.0000
  26   H6       16.8451    1.8724   27.8800    H 1 <0>  0.0000
  27   H7       14.9170    4.3562   26.2012    H 1 <0>  0.0000
  28   H8       18.8490    1.8078   26.4511    H 1 <0>  0.0000
  29   H9       17.8303    1.5497   25.0110    H 1 <0>  0.0000
  30  H10       18.5584    6.6642   21.1970    H 1 <0>  0.3999
  31  H11       17.0416    7.5272   21.0654    H 1 <0>  0.3999
  32  H12       14.5251    0.9219   27.9873    H 1 <0>  0.3999
@<TRIPOS>BOND
    1     1     2  1
    2     1     3  1
    3     2    11  1
    4     3    10  1
    5     3    12  1
    6     4    10  1
    7     4    11  1
    8     4    15  1
    9     5     6  1
   10     5     8  1
   11     6     7  1
   12     6    18  1
   13     7     9  1
   14     7    17  1
   15     8    11  1
   16     8    17  1
   17     9    19  1
   18    13    20  1
   19    14    20  1
   20    16    20  1
   21    19    20  1
   22     1    21  1
   23     2    22  1
   24     5    23  1
   25     5    24  1
   26     6    25  1
   27     7    26  1
   28     8    27  1
   29     9    28  1
   30     9    29  1
   31    12    30  1
   32    12    31  1
   33    18    32  1

@<TRIPOS>MOLECULE
MOL
   32   33    0    0    0
SMALL
USER_CHARGES


@<TRIPOS>ATOM
   1   C1       17.9293    5.0233   23.0868  C.2 1 <0> -0.1356
   2   C2       17.4063    4.3280   24.0947  C.2 1 <0> -0.0410
   3   C3       17.0443    6.0361   22.4545  C.2 1 <0>  0.4856
   4   C4       15.2948    5.4970   23.9184  C.2 1 <0>  0.8408
   5   C5       15.0402    2.4017   25.1854  C.3 1 <0>  0.0000
   6   C6       15.3860    1.4792   26.3314  C.3 1 <0>  0.2800
   7   C7       16.7283    2.0138   26.8111  C.3 1 <0>  0.2800
   8   C8       15.6361    3.7250   25.6371  C.3 1 <0>  0.5801
   9   C9       17.9106    1.3823   26.0876  C.3 1 <0>  0.2800
  10   N1       15.8196    6.2307   22.8683  N.2 1 <0> -0.6611
  11   N2       16.1107    4.5228   24.5446 N.am 1 <0> -0.4690
  12   N3       17.5465    6.7762   21.4094 N.pl3 1 <0> -0.8501
  13   O1       18.7676   -2.3524   26.1510  O.3 1 <0> -1.0332
  14   O2       20.3972   -0.3812   26.2318  O.3 1 <0> -1.0332
  15   O3       14.1380    5.6935   24.2948  O.2 1 <0> -0.5698
  16   O4       18.9314   -0.7527   24.1606  O.2 1 <0> -1.0332
  17   O5       16.7298    3.4238   26.5153  O.3 1 <0> -0.5601
  18   O6       14.4132    1.6120   27.3654  O.3 1 <0> -0.6802
  19   O7       17.9091   -0.0135   26.3390  O.3 1 <0> -0.5513
  20   P1       19.0969   -0.9440   25.6653  P.3 1 <0>  1.3711
  21   H1       18.9400    4.8774   22.7298    H 1 <0>  0.1500
  22   H2       17.9829    3.5698   24.6127    H 1 <0>  0.1500
  23   H3       15.4172    2.0470   24.2196    H 1 <0>  0.0000
  24   H4       13.9490    2.4872   25.0932    H 1 <0>  0.0000
  25   H5       15.4290    0.4474   26.0121    H 1 <0>  0.0000
  26   H6       16.8540    1.8878   27.8810    H 1 <0>  0.0000
  27   H7       14.8932    4.3327   26.1828    H 1 <0>  0.0000
  28   H8       18.8490    1.8078   26.4511    H 1 <0>  0.0000
  29   H9       17.8303    1.5497   25.0110    H 1 <0>  0.0000
  30  H10       18.4792    6.6025   21.1215    H 1 <0>  0.3999
  31  H11       16.9543    7.4511   20.9892    H 1 <0>  0.3999
  32  H12       14.5428    0.9199   28.0180    H 1 <0>  0.3999
@<TRIPOS>BOND
    1     1     2  1
    2     1     3  1
    3     2    11  1
    4     3    10  1
    5     3    12  1
    6     4    10  1
    7     4    11  1
    8     4    15  1
    9     5     6  1
   10     5     8  1
   11     6     7  1
   12     6    18  1
   13     7     9  1
   14     7    17  1
   15     8    11  1
   16     8    17  1
   17     9    19  1
   18    13    20  1
   19    14    20  1
   20    16    20  1
   21    19    20  1
   22     1    21  1
   23     2    22  1
   24     5    23  1
   25     5    24  1
   26     6    25  1
   27     7    26  1
   28     8    27  1
   29     9    28  1
   30     9    29  1
   31    12    30  1
   32    12    31  1
   33    18    32  1

@<TRIPOS>MOLECULE
MOL
   32   33    0    0    0
SMALL
USER_CHARGES


@<TRIPOS>ATOM
   1   C1       17.8774    4.9822   23.0378  C.2 1 <0> -0.1356
   2   C2       17.3674    4.2965   24.0588  C.2 1 <0> -0.0410
   3   C3       16.9795    5.9790   22.3983  C.2 1 <0>  0.4856
   4   C4       15.2451    5.4454   23.8821  C.2 1 <0>  0.8408
   5   C5       15.0254    2.3656   25.1927  C.3 1 <0>  0.0000
   6   C6       15.3871    1.4617   26.3485  C.3 1 <0>  0.2800
   7   C7       16.7283    2.0138   26.8111  C.3 1 <0>  0.2800
   8   C8       15.6134    3.6998   25.6220  C.3 1 <0>  0.5801
   9   C9       17.9106    1.3823   26.0876  C.3 1 <0>  0.2800
  10   N1       15.7562    6.1692   22.8184  N.2 1 <0> -0.6611
  11   N2       16.0736    4.4866   24.5154 N.am 1 <0> -0.4690
  12   N3       17.4680    6.7090   21.3397 N.pl3 1 <0> -0.8501
  13   O1       18.7676   -2.3524   26.1510  O.3 1 <0> -1.0332
  14   O2       20.3972   -0.3812   26.2318  O.3 1 <0> -1.0332
  15   O3       14.0894    5.6376   24.2642  O.2 1 <0> -0.5698
  16   O4       18.9314   -0.7527   24.1606  O.2 1 <0> -1.0332
  17   O5       16.7160    3.4196   26.4963  O.3 1 <0> -0.5601
  18   O6       14.4207    1.6005   27.3877  O.3 1 <0> -0.6802
  19   O7       17.9091   -0.0135   26.3390  O.3 1 <0> -0.5513
  20   P1       19.0969   -0.9440   25.6653  P.3 1 <0>  1.3711
  21   H1       18.8867    4.8399   22.6755    H 1 <0>  0.1500
  22   H2       17.9541    3.5501   24.5828    H 1 <0>  0.1500
  23   H3       15.3984    2.0010   24.2290    H 1 <0>  0.0000
  24   H4       13.9329    2.4410   25.1073    H 1 <0>  0.0000
  25   H5       15.4364    0.4260   26.0429    H 1 <0>  0.0000
  26   H6       16.8627    1.9034   27.8816    H 1 <0>  0.0000
  27   H7       14.8695    4.3088   26.1650    H 1 <0>  0.0000
  28   H8       18.8490    1.8078   26.4511    H 1 <0>  0.0000
  29   H9       17.8303    1.5497   25.0110    H 1 <0>  0.0000
  30  H10       18.4000    6.5391   21.0473    H 1 <0>  0.3999
  31  H11       16.8672    7.3732   20.9148    H 1 <0>  0.3999
  32  H12       14.5607    0.9184   28.0486    H 1 <0>  0.3999
@<TRIPOS>BOND
    1     1     2  1
    2     1     3  1
    3     2    11  1
    4     3    10  1
    5     3    12  1
    6     4    10  1
    7     4    11  1
    8     4    15  1
    9     5     6  1
   10     5     8  1
   11     6     7  1
   12     6    18  1
   13     7     9  1
   14     7    17  1
   15     8    11  1
   16     8    17  1
   17     9    19  1
   18    13    20  1
   19    14    20  1
   20    16    20  1
   21    19    20  1
   22     1    21  1
   23     2    22  1
   24     5    23  1
   25     5    24  1
   26     6    25  1
   27     7    26  1
   28     8    27  1
   29     9    28  1
   30     9    29  1
   31    12    30  1
   32    12    31  1
   33    18    32  1

@<TRIPOS>MOLECULE
MOL
   32   33    0    0    0
SMALL
USER_CHARGES


@<TRIPOS>ATOM
   1   C1       17.8255    4.9401   22.9897  C.2 1 <0> -0.1356
   2   C2       17.3286    4.2641   24.0237  C.2 1 <0> -0.0410
   3   C3       16.9147    5.9207   22.3434  C.2 1 <0>  0.4856
   4   C4       15.1955    5.3930   23.8469  C.2 1 <0>  0.8408
   5   C5       15.0109    2.3296   25.2005  C.3 1 <0>  0.0000
   6   C6       15.3885    1.4444   26.3658  C.3 1 <0>  0.2800
   7   C7       16.7283    2.0138   26.8111  C.3 1 <0>  0.2800
   8   C8       15.5909    3.6743   25.6075  C.3 1 <0>  0.5801
   9   C9       17.9106    1.3823   26.0876  C.3 1 <0>  0.2800
  10   N1       15.6930    6.1064   22.7697  N.2 1 <0> -0.6611
  11   N2       16.0365    4.4498   24.4870 N.am 1 <0> -0.4690
  12   N3       17.3895    6.6402   21.2715 N.pl3 1 <0> -0.8501
  13   O1       18.7676   -2.3524   26.1510  O.3 1 <0> -1.0332
  14   O2       20.3972   -0.3812   26.2318  O.3 1 <0> -1.0332
  15   O3       14.0410    5.5808   24.2348  O.2 1 <0> -0.5698
  16   O4       18.9314   -0.7527   24.1606  O.2 1 <0> -1.0332
  17   O5       16.7020    3.4151   26.4774  O.3 1 <0> -0.5601
  18   O6       14.4284    1.5894   27.4100  O.3 1 <0> -0.6802
  19   O7       17.9091   -0.0135   26.3390  O.3 1 <0> -0.5513
  20   P1       19.0969   -0.9440   25.6653  P.3 1 <0>  1.3711
  21   H1       18.8333    4.8012   22.6220    H 1 <0>  0.1500
  22   H2       17.9252    3.5297   24.5534    H 1 <0>  0.1500
  23   H3       15.3800    1.9550   24.2392    H 1 <0>  0.0000
  24   H4       13.9173    2.3947   25.1221    H 1 <0>  0.0000
  25   H5       15.4442    0.4052   26.0738    H 1 <0>  0.0000
  26   H6       16.8713    1.9191   27.8820    H 1 <0>  0.0000
  27   H7       14.8458    4.2844   26.1476    H 1 <0>  0.0000
  28   H8       18.8490    1.8078   26.4511    H 1 <0>  0.0000
  29   H9       17.8303    1.5497   25.0110    H 1 <0>  0.0000
  30  H10       18.3208    6.4741   20.9747    H 1 <0>  0.3999
  31  H11       16.7801    7.2936   20.8420    H 1 <0>  0.3999
  32  H12       14.5789    0.9175   28.0790    H 1 <0>  0.3999
@<TRIPOS>BOND
    1     1     2  1
    2     1     3  1
    3     2    11  1
    4     3    10  1
    5     3    12  1
    6     4    10  1
    7     4    11  1
    8     4    15  1
    9     5     6  1
   10     5     8  1
   11     6     7  1
   12     6    18  1
   13     7     9  1
   14     7    17  1
   15     8    11  1
   16     8    17  1
   17     9    19  1
   18    13    20  1
   19    14    20  1
   20    16    20  1
   21    19    20  1
   22     1    21  1
   23     2    22  1
   24     5    23  1
   25     5    24  1
   26     6    25  1
   27     7    26  1
   28     8    27  1
   29     9    28  1
   30     9    29  1
   31    12    30  1
   32    12    31  1
   33    18    32  1

@<TRIPOS>MOLECULE
MOL
   32   33    0    0    0
SMALL
USER_CHARGES


@<TRIPOS>ATOM
   1   C1       17.7736    4.8969   22.9426  C.2 1 <0> -0.1356
   2   C2       17.2898    4.2309   23.9892  C.2 1 <0> -0.0410
   3   C3       16.8500    5.8611   22.2898  C.2 1 <0>  0.4856
   4   C4       15.1462    5.3397   23.8127  C.2 1 <0>  0.8408
   5   C5       14.9968    2.2935   25.2089  C.3 1 <0>  0.0000
   6   C6       15.3901    1.4274   26.3833  C.3 1 <0>  0.2800
   7   C7       16.7283    2.0138   26.8111  C.3 1 <0>  0.2800
   8   C8       15.5685    3.6483   25.5935  C.3 1 <0>  0.5801
   9   C9       17.9106    1.3823   26.0876  C.3 1 <0>  0.2800
  10   N1       15.6299    6.0425   22.7225  N.2 1 <0> -0.6611
  11   N2       15.9996    4.4122   24.4594 N.am 1 <0> -0.4690
  12   N3       17.3111    6.5698   21.2048 N.pl3 1 <0> -0.8501
  13   O1       18.7676   -2.3524   26.1510  O.3 1 <0> -1.0332
  14   O2       20.3972   -0.3812   26.2318  O.3 1 <0> -1.0332
  15   O3       13.9930    5.5232   24.2065  O.2 1 <0> -0.5698
  16   O4       18.9314   -0.7527   24.1606  O.2 1 <0> -1.0332
  17   O5       16.6879    3.4101   26.4587  O.3 1 <0> -0.5601
  18   O6       14.4364    1.5786   27.4324  O.3 1 <0> -0.6802
  19   O7       17.9091   -0.0135   26.3390  O.3 1 <0> -0.5513
  20   P1       19.0969   -0.9440   25.6653  P.3 1 <0>  1.3711
  21   H1       18.7799    4.7613   22.5695    H 1 <0>  0.1500
  22   H2       17.8963    3.5087   24.5244    H 1 <0>  0.1500
  23   H3       15.3622    1.9089   24.2501    H 1 <0>  0.0000
  24   H4       13.9021    2.3486   25.1376    H 1 <0>  0.0000
  25   H5       15.4524    0.3848   26.1050    H 1 <0>  0.0000
  26   H6       16.8798    1.9348   27.8821    H 1 <0>  0.0000
  27   H7       14.8222    4.2596   26.1307    H 1 <0>  0.0000
  28   H8       18.8490    1.8078   26.4511    H 1 <0>  0.0000
  29   H9       17.8303    1.5497   25.0110    H 1 <0>  0.0000
  30  H10       18.2416    6.4074   20.9034    H 1 <0>  0.3999
  31  H11       16.6933    7.2123   20.7710    H 1 <0>  0.3999
  32  H12       14.5972    0.9171   28.1094    H 1 <0>  0.3999
@<TRIPOS>BOND
    1     1     2  1
    2     1     3  1
    3     2    11  1
    4     3    10  1
    5     3    12  1
    6     4    10  1
    7     4    11  1
    8     4    15  1
    9     5     6  1
   10     5     8  1
   11     6     7  1
   12     6    18  1
   13     7     9  1
   14     7    17  1
   15     8    11  1
   16     8    17  1
   17     9    19  1
   18    13    20  1
   19    14    20  1
   20    16    20  1
   21    19    20  1
   22     1    21  1
   23     2    22  1
   24     5    23  1
   25     5    24  1
   26     6    25  1
   27     7    26  1
   28     8    27  1
   29     9    28  1
   30     9    29  1
   31    12    30  1
   32    12    31  1
   33    18    32  1

@<TRIPOS>MOLECULE
MOL
   32   33    0    0    0
SMALL
USER_CHARGES


@<TRIPOS>ATOM
   1   C1       17.7217    4.8526   22.8965  C.2 1 <0> -0.1356
   2   C2       17.2510    4.1969   23.9555  C.2 1 <0> -0.0410
   3   C3       16.7855    5.8002   22.2374  C.2 1 <0>  0.4856
   4   C4       15.0970    5.2855   23.7796  C.2 1 <0>  0.8408
   5   C5       14.9831    2.2575   25.2180  C.3 1 <0>  0.0000
   6   C6       15.3920    1.4107   26.4010  C.3 1 <0>  0.2800
   7   C7       16.7283    2.0138   26.8111  C.3 1 <0>  0.2800
   8   C8       15.5462    3.6220   25.5800  C.3 1 <0>  0.5801
   9   C9       17.9106    1.3823   26.0876  C.3 1 <0>  0.2800
  10   N1       15.5670    5.9774   22.6765  N.2 1 <0> -0.6611
  11   N2       15.9627    4.3740   24.4326 N.am 1 <0> -0.4690
  12   N3       17.2329    6.4979   21.1396 N.pl3 1 <0> -0.8501
  13   O1       18.7676   -2.3524   26.1510  O.3 1 <0> -1.0332
  14   O2       20.3972   -0.3812   26.2318  O.3 1 <0> -1.0332
  15   O3       13.9452    5.4649   24.1793  O.2 1 <0> -0.5698
  16   O4       18.9314   -0.7527   24.1606  O.2 1 <0> -1.0332
  17   O5       16.6737    3.4049   26.4401  O.3 1 <0> -0.5601
  18   O6       14.4446    1.5682   27.4550  O.3 1 <0> -0.6802
  19   O7       17.9091   -0.0135   26.3390  O.3 1 <0> -0.5513
  20   P1       19.0969   -0.9440   25.6653  P.3 1 <0>  1.3711
  21   H1       18.7264    4.7203   22.5179    H 1 <0>  0.1500
  22   H2       17.8673    3.4871   24.4959    H 1 <0>  0.1500
  23   H3       15.3447    1.8629   24.2618    H 1 <0>  0.0000
  24   H4       13.8875    2.3025   25.1539    H 1 <0>  0.0000
  25   H5       15.4610    0.3649   26.1364    H 1 <0>  0.0000
  26   H6       16.8881    1.9506   27.8820    H 1 <0>  0.0000
  27   H7       14.7987    4.2344   26.1143    H 1 <0>  0.0000
  28   H8       18.8490    1.8078   26.4511    H 1 <0>  0.0000
  29   H9       17.8303    1.5497   25.0110    H 1 <0>  0.0000
  30  H10       18.1624    6.3391   20.8337    H 1 <0>  0.3999
  31  H11       16.6065    7.1294   20.7017    H 1 <0>  0.3999
  32  H12       14.6158    0.9173   28.1396    H 1 <0>  0.3999
@<TRIPOS>BOND
    1     1     2  1
    2     1     3  1
    3     2    11  1
    4     3    10  1
    5     3    12  1
    6     4    10  1
    7     4    11  1
    8     4    15  1
    9     5     6  1
   10     5     8  1
   11     6     7  1
   12     6    18  1
   13     7     9  1
   14     7    17  1
   15     8    11  1
   16     8    17  1
   17     9    19  1
   18    13    20  1
   19    14    20  1
   20    16    20  1
   21    19    20  1
   22     1    21  1
   23     2    22  1
   24     5    23  1
   25     5    24  1
   26     6    25  1
   27     7    26  1
   28     8    27  1
   29     9    28  1
   30     9    29  1
   31    12    30  1
   32    12    31  1
   33    18    32  1

@<TRIPOS>MOLECULE
MOL
   32   33    0    0    0
SMALL
USER_CHARGES


@<TRIPOS>ATOM
   1   C1       17.6698    4.8073   22.8513  C.2 1 <0> -0.1356
   2   C2       17.2123    4.1622   23.9225  C.2 1 <0> -0.0410
   3   C3       16.7211    5.7381   22.1864  C.2 1 <0>  0.4856
   4   C4       15.0481    5.2305   23.7477  C.2 1 <0>  0.8408
   5   C5       14.9697    2.2214   25.2276  C.3 1 <0>  0.0000
   6   C6       15.3942    1.3942   26.4190  C.3 1 <0>  0.2800
   7   C7       16.7283    2.0138   26.8111  C.3 1 <0>  0.2800
   8   C8       15.5240    3.5954   25.5671  C.3 1 <0>  0.5801
   9   C9       17.9106    1.3823   26.0876  C.3 1 <0>  0.2800
  10   N1       15.5043    5.9112   22.6319  N.2 1 <0> -0.6611
  11   N2       15.9260    4.3351   24.4066 N.am 1 <0> -0.4690
  12   N3       17.1547    6.4245   21.0760 N.pl3 1 <0> -0.8501
  13   O1       18.7676   -2.3524   26.1510  O.3 1 <0> -1.0332
  14   O2       20.3972   -0.3812   26.2318  O.3 1 <0> -1.0332
  15   O3       13.8977    5.4058   24.1532  O.2 1 <0> -0.5698
  16   O4       18.9314   -0.7527   24.1606  O.2 1 <0> -1.0332
  17   O5       16.6595    3.3992   26.4218  O.3 1 <0> -0.5601
  18   O6       14.4531    1.5582   27.4776  O.3 1 <0> -0.6802
  19   O7       17.9091   -0.0135   26.3390  O.3 1 <0> -0.5513
  20   P1       19.0969   -0.9440   25.6653  P.3 1 <0>  1.3711
  21   H1       18.6729    4.6781   22.4673    H 1 <0>  0.1500
  22   H2       17.8384    3.4649   24.4680    H 1 <0>  0.1500
  23   H3       15.3278    1.8169   24.2742    H 1 <0>  0.0000
  24   H4       13.8734    2.2566   25.1709    H 1 <0>  0.0000
  25   H5       15.4700    0.3455   26.1680    H 1 <0>  0.0000
  26   H6       16.8963    1.9665   27.8815    H 1 <0>  0.0000
  27   H7       14.7753    4.2087   26.0984    H 1 <0>  0.0000
  28   H8       18.8490    1.8078   26.4511    H 1 <0>  0.0000
  29   H9       17.8303    1.5497   25.0110    H 1 <0>  0.0000
  30  H10       18.0834    6.2692   20.7655    H 1 <0>  0.3999
  31  H11       16.5200    7.0448   20.6341    H 1 <0>  0.3999
  32  H12       14.6346    0.9181   28.1697    H 1 <0>  0.3999
@<TRIPOS>BOND
    1     1     2  1
    2     1     3  1
    3     2    11  1
    4     3    10  1
    5     3    12  1
    6     4    10  1
    7     4    11  1
    8     4    15  1
    9     5     6  1
   10     5     8  1
   11     6     7  1
   12     6    18  1
   13     7     9  1
   14     7    17  1
   15     8    11  1
   16     8    17  1
   17     9    19  1
   18    13    20  1
   19    14    20  1
   20    16    20  1
   21    19    20  1
   22     1    21  1
   23     2    22  1
   24     5    23  1
   25     5    24  1
   26     6    25  1
   27     7    26  1
   28     8    27  1
   29     9    28  1
   30     9    29  1
   31    12    30  1
   32    12    31  1
   33    18    32  1

@<TRIPOS>MOLECULE
MOL
   32   33    0    0    0
SMALL
USER_CHARGES


@<TRIPOS>ATOM
   1   C1       17.6181    4.7609   22.8072  C.2 1 <0> -0.1356
   2   C2       17.1736    4.1267   23.8902  C.2 1 <0> -0.0410
   3   C3       16.6568    5.6748   22.1366  C.2 1 <0>  0.4856
   4   C4       14.9993    5.1747   23.7168  C.2 1 <0>  0.8408
   5   C5       14.9567    2.1854   25.2378  C.3 1 <0>  0.0000
   6   C6       15.3966    1.3779   26.4371  C.3 1 <0>  0.2800
   7   C7       16.7283    2.0138   26.8111  C.3 1 <0>  0.2800
   8   C8       15.5020    3.5684   25.5546  C.3 1 <0>  0.5801
   9   C9       17.9106    1.3823   26.0876  C.3 1 <0>  0.2800
  10   N1       15.4419    5.8439   22.5886  N.2 1 <0> -0.6611
  11   N2       15.8894    4.2955   24.3813 N.am 1 <0> -0.4690
  12   N3       17.0767    6.3496   21.0140 N.pl3 1 <0> -0.8501
  13   O1       18.7676   -2.3524   26.1510  O.3 1 <0> -1.0332
  14   O2       20.3972   -0.3812   26.2318  O.3 1 <0> -1.0332
  15   O3       13.8505    5.3459   24.1283  O.2 1 <0> -0.5698
  16   O4       18.9314   -0.7527   24.1606  O.2 1 <0> -1.0332
  17   O5       16.6451    3.3932   26.4036  O.3 1 <0> -0.5601
  18   O6       14.4618    1.5485   27.5002  O.3 1 <0> -0.6802
  19   O7       17.9091   -0.0135   26.3390  O.3 1 <0> -0.5513
  20   P1       19.0969   -0.9440   25.6653  P.3 1 <0>  1.3711
  21   H1       18.6193    4.6348   22.4176    H 1 <0>  0.1500
  22   H2       17.8094    3.4420   24.4406    H 1 <0>  0.1500
  23   H3       15.3113    1.7710   24.2874    H 1 <0>  0.0000
  24   H4       13.8597    2.2108   25.1887    H 1 <0>  0.0000
  25   H5       15.4794    0.3266   26.1998    H 1 <0>  0.0000
  26   H6       16.9044    1.9824   27.8808    H 1 <0>  0.0000
  27   H7       14.7520    4.1827   26.0831    H 1 <0>  0.0000
  28   H8       18.8490    1.8078   26.4511    H 1 <0>  0.0000
  29   H9       17.8303    1.5497   25.0110    H 1 <0>  0.0000
  30  H10       18.0044    6.1978   20.6988    H 1 <0>  0.3999
  31  H11       16.4337    6.9586   20.5684    H 1 <0>  0.3999
  32  H12       14.6537    0.9194   28.1996    H 1 <0>  0.3999
@<TRIPOS>BOND
    1     1     2  1
    2     1     3  1
    3     2    11  1
    4     3    10  1
    5     3    12  1
    6     4    10  1
    7     4    11  1
    8     4    15  1
    9     5     6  1
   10     5     8  1
   11     6     7  1
   12     6    18  1
   13     7     9  1
   14     7    17  1
   15     8    11  1
   16     8    17  1
   17     9    19  1
   18    13    20  1
   19    14    20  1
   20    16    20  1
   21    19    20  1
   22     1    21  1
   23     2    22  1
   24     5    23  1
   25     5    24  1
   26     6    25  1
   27     7    26  1
   28     8    27  1
   29     9    28  1
   30     9    29  1
   31    12    30  1
   32    12    31  1
   33    18    32  1

@<TRIPOS>MOLECULE
MOL
   32   33    0    0    0
SMALL
USER_CHARGES


@<TRIPOS>ATOM
   1   C1       17.5663    4.7135   22.7640  C.2 1 <0> -0.1356
   2   C2       17.1350    4.0904   23.8588  C.2 1 <0> -0.0410
   3   C3       16.5927    5.6103   22.0882  C.2 1 <0>  0.4856
   4   C4       14.9509    5.1180   23.6870  C.2 1 <0>  0.8408
   5   C5       14.9441    2.1494   25.2486  C.3 1 <0>  0.0000
   6   C6       15.3993    1.3619   26.4555  C.3 1 <0>  0.2800
   7   C7       16.7283    2.0138   26.8111  C.3 1 <0>  0.2800
   8   C8       15.4801    3.5410   25.5427  C.3 1 <0>  0.5801
   9   C9       17.9106    1.3823   26.0876  C.3 1 <0>  0.2800
  10   N1       15.3797    5.7755   22.5467  N.2 1 <0> -0.6611
  11   N2       15.8530    4.2553   24.3569 N.am 1 <0> -0.4690
  12   N3       16.9989    6.2733   20.9535 N.pl3 1 <0> -0.8501
  13   O1       18.7676   -2.3524   26.1510  O.3 1 <0> -1.0332
  14   O2       20.3972   -0.3812   26.2318  O.3 1 <0> -1.0332
  15   O3       13.8036    5.2854   24.1046  O.2 1 <0> -0.5698
  16   O4       18.9314   -0.7527   24.1606  O.2 1 <0> -1.0332
  17   O5       16.6307    3.3868   26.3856  O.3 1 <0> -0.5601
  18   O6       14.4708    1.5393   27.5230  O.3 1 <0> -0.6802
  19   O7       17.9091   -0.0135   26.3390  O.3 1 <0> -0.5513
  20   P1       19.0969   -0.9440   25.6653  P.3 1 <0>  1.3711
  21   H1       18.5658    4.5904   22.3689    H 1 <0>  0.1500
  22   H2       17.7804    3.4186   24.4137    H 1 <0>  0.1500
  23   H3       15.2953    1.7251   24.3013    H 1 <0>  0.0000
  24   H4       13.8466    2.1651   25.2071    H 1 <0>  0.0000
  25   H5       15.4891    0.3082   26.2318    H 1 <0>  0.0000
  26   H6       16.9123    1.9984   27.8798    H 1 <0>  0.0000
  27   H7       14.7288    4.1562   26.0683    H 1 <0>  0.0000
  28   H8       18.8490    1.8078   26.4511    H 1 <0>  0.0000
  29   H9       17.8303    1.5497   25.0110    H 1 <0>  0.0000
  30  H10       17.9255    6.1248   20.6337    H 1 <0>  0.3999
  31  H11       16.3477    6.8708   20.5044    H 1 <0>  0.3999
  32  H12       14.6729    0.9213   28.2293    H 1 <0>  0.3999
@<TRIPOS>BOND
    1     1     2  1
    2     1     3  1
    3     2    11  1
    4     3    10  1
    5     3    12  1
    6     4    10  1
    7     4    11  1
    8     4    15  1
    9     5     6  1
   10     5     8  1
   11     6     7  1
   12     6    18  1
   13     7     9  1
   14     7    17  1
   15     8    11  1
   16     8    17  1
   17     9    19  1
   18    13    20  1
   19    14    20  1
   20    16    20  1
   21    19    20  1
   22     1    21  1
   23     2    22  1
   24     5    23  1
   25     5    24  1
   26     6    25  1
   27     7    26  1
   28     8    27  1
   29     9    28  1
   30     9    29  1
   31    12    30  1
   32    12    31  1
   33    18    32  1

@<TRIPOS>MOLECULE
MOL
   32   33    0    0    0
SMALL
USER_CHARGES


@<TRIPOS>ATOM
   1   C1       17.5147    4.6652   22.7219  C.2 1 <0> -0.1356
   2   C2       17.0964    4.0534   23.8281  C.2 1 <0> -0.0410
   3   C3       16.5288    5.5446   22.0411  C.2 1 <0>  0.4856
   4   C4       14.9027    5.0606   23.6584  C.2 1 <0>  0.8408
   5   C5       14.9319    2.1135   25.2600  C.3 1 <0>  0.0000
   6   C6       15.4023    1.3462   26.4740  C.3 1 <0>  0.2800
   7   C7       16.7283    2.0138   26.8111  C.3 1 <0>  0.2800
   8   C8       15.4583    3.5133   25.5313  C.3 1 <0>  0.5801
   9   C9       17.9106    1.3823   26.0876  C.3 1 <0>  0.2800
  10   N1       15.3178    5.7060   22.5062  N.2 1 <0> -0.6611
  11   N2       15.8168    4.2145   24.3333 N.am 1 <0> -0.4690
  12   N3       16.9213    6.1954   20.8946 N.pl3 1 <0> -0.8501
  13   O1       18.7676   -2.3524   26.1510  O.3 1 <0> -1.0332
  14   O2       20.3972   -0.3812   26.2318  O.3 1 <0> -1.0332
  15   O3       13.7571    5.2241   24.0820  O.2 1 <0> -0.5698
  16   O4       18.9314   -0.7527   24.1606  O.2 1 <0> -1.0332
  17   O5       16.6162    3.3800   26.3678  O.3 1 <0> -0.5601
  18   O6       14.4800    1.5304   27.5458  O.3 1 <0> -0.6802
  19   O7       17.9091   -0.0135   26.3390  O.3 1 <0> -0.5513
  20   P1       19.0969   -0.9440   25.6653  P.3 1 <0>  1.3711
  21   H1       18.5123    4.5449   22.3212    H 1 <0>  0.1500
  22   H2       17.7514    3.3945   24.3873    H 1 <0>  0.1500
  23   H3       15.2797    1.6792   24.3159    H 1 <0>  0.0000
  24   H4       13.8340    2.1195   25.2263    H 1 <0>  0.0000
  25   H5       15.4993    0.2904   26.2640    H 1 <0>  0.0000
  26   H6       16.9201    2.0144   27.8786    H 1 <0>  0.0000
  27   H7       14.7057    4.1294   26.0540    H 1 <0>  0.0000
  28   H8       18.8490    1.8078   26.4511    H 1 <0>  0.0000
  29   H9       17.8303    1.5497   25.0110    H 1 <0>  0.0000
  30  H10       17.8468    6.0503   20.5701    H 1 <0>  0.3999
  31  H11       16.2619    6.7814   20.4423    H 1 <0>  0.3999
  32  H12       14.6923    0.9238   28.2589    H 1 <0>  0.3999
@<TRIPOS>BOND
    1     1     2  1
    2     1     3  1
    3     2    11  1
    4     3    10  1
    5     3    12  1
    6     4    10  1
    7     4    11  1
    8     4    15  1
    9     5     6  1
   10     5     8  1
   11     6     7  1
   12     6    18  1
   13     7     9  1
   14     7    17  1
   15     8    11  1
   16     8    17  1
   17     9    19  1
   18    13    20  1
   19    14    20  1
   20    16    20  1
   21    19    20  1
   22     1    21  1
   23     2    22  1
   24     5    23  1
   25     5    24  1
   26     6    25  1
   27     7    26  1
   28     8    27  1
   29     9    28  1
   30     9    29  1
   31    12    30  1
   32    12    31  1
   33    18    32  1

@<TRIPOS>MOLECULE
MOL
   32   33    0    0    0
SMALL
USER_CHARGES


@<TRIPOS>ATOM
   1   C1       17.4632    4.6158   22.6808  C.2 1 <0> -0.1356
   2   C2       17.0580    4.0157   23.7982  C.2 1 <0> -0.0410
   3   C3       16.4651    5.4777   21.9954  C.2 1 <0>  0.4856
   4   C4       14.8547    5.0023   23.6309  C.2 1 <0>  0.8408
   5   C5       14.9200    2.0776   25.2719  C.3 1 <0>  0.0000
   6   C6       15.4055    1.3308   26.4927  C.3 1 <0>  0.2800
   7   C7       16.7283    2.0138   26.8111  C.3 1 <0>  0.2800
   8   C8       15.4367    3.4853   25.5204  C.3 1 <0>  0.5801
   9   C9       17.9106    1.3823   26.0876  C.3 1 <0>  0.2800
  10   N1       15.2562    5.6355   22.4671  N.2 1 <0> -0.6611
  11   N2       15.7807    4.1731   24.3104 N.am 1 <0> -0.4690
  12   N3       16.8440    6.1162   20.8374 N.pl3 1 <0> -0.8501
  13   O1       18.7676   -2.3524   26.1510  O.3 1 <0> -1.0332
  14   O2       20.3972   -0.3812   26.2318  O.3 1 <0> -1.0332
  15   O3       13.7109    5.1622   24.0606  O.2 1 <0> -0.5698
  16   O4       18.9314   -0.7527   24.1606  O.2 1 <0> -1.0332
  17   O5       16.6016    3.3729   26.3502  O.3 1 <0> -0.5601
  18   O6       14.4894    1.5219   27.5686  O.3 1 <0> -0.6802
  19   O7       17.9091   -0.0135   26.3390  O.3 1 <0> -0.5513
  20   P1       19.0969   -0.9440   25.6653  P.3 1 <0>  1.3711
  21   H1       18.4589    4.4983   22.2745    H 1 <0>  0.1500
  22   H2       17.7224    3.3699   24.3614    H 1 <0>  0.1500
  23   H3       15.2647    1.6334   24.3313    H 1 <0>  0.0000
  24   H4       13.8219    2.0742   25.2461    H 1 <0>  0.0000
  25   H5       15.5098    0.2730   26.2963    H 1 <0>  0.0000
  26   H6       16.9278    2.0305   27.8770    H 1 <0>  0.0000
  27   H7       14.6828    4.1022   26.0402    H 1 <0>  0.0000
  28   H8       18.8490    1.8078   26.4511    H 1 <0>  0.0000
  29   H9       17.8303    1.5497   25.0110    H 1 <0>  0.0000
  30  H10       17.7683    5.9742   20.5081    H 1 <0>  0.3999
  31  H11       16.1765    6.6905   20.3820    H 1 <0>  0.3999
  32  H12       14.7119    0.9268   28.2883    H 1 <0>  0.3999
@<TRIPOS>BOND
    1     1     2  1
    2     1     3  1
    3     2    11  1
    4     3    10  1
    5     3    12  1
    6     4    10  1
    7     4    11  1
    8     4    15  1
    9     5     6  1
   10     5     8  1
   11     6     7  1
   12     6    18  1
   13     7     9  1
   14     7    17  1
   15     8    11  1
   16     8    17  1
   17     9    19  1
   18    13    20  1
   19    14    20  1
   20    16    20  1
   21    19    20  1
   22     1    21  1
   23     2    22  1
   24     5    23  1
   25     5    24  1
   26     6    25  1
   27     7    26  1
   28     8    27  1
   29     9    28  1
   30     9    29  1
   31    12    30  1
   32    12    31  1
   33    18    32  1

@<TRIPOS>MOLECULE
MOL
   32   33    0    0    0
SMALL
USER_CHARGES


@<TRIPOS>ATOM
   1   C1       17.4118    4.5655   22.6408  C.2 1 <0> -0.1356
   2   C2       17.0196    3.9773   23.7691  C.2 1 <0> -0.0410
   3   C3       16.4017    5.4097   21.9511  C.2 1 <0>  0.4856
   4   C4       14.8071    4.9434   23.6046  C.2 1 <0>  0.8408
   5   C5       14.9085    2.0418   25.2844  C.3 1 <0>  0.0000
   6   C6       15.4090    1.3157   26.5117  C.3 1 <0>  0.2800
   7   C7       16.7283    2.0138   26.8111  C.3 1 <0>  0.2800
   8   C8       15.4152    3.4569   25.5101  C.3 1 <0>  0.5801
   9   C9       17.9106    1.3823   26.0876  C.3 1 <0>  0.2800
  10   N1       15.1949    5.5639   22.4294  N.2 1 <0> -0.6611
  11   N2       15.7448    4.1311   24.2885 N.am 1 <0> -0.4690
  12   N3       16.7669    6.0355   20.7818 N.pl3 1 <0> -0.8501
  13   O1       18.7676   -2.3524   26.1510  O.3 1 <0> -1.0332
  14   O2       20.3972   -0.3812   26.2318  O.3 1 <0> -1.0332
  15   O3       13.6651    5.0996   24.0404  O.2 1 <0> -0.5698
  16   O4       18.9314   -0.7527   24.1606  O.2 1 <0> -1.0332
  17   O5       16.5870    3.3654   26.3328  O.3 1 <0> -0.5601
  18   O6       14.4991    1.5138   27.5915  O.3 1 <0> -0.6802
  19   O7       17.9091   -0.0135   26.3390  O.3 1 <0> -0.5513
  20   P1       19.0969   -0.9440   25.6653  P.3 1 <0>  1.3711
  21   H1       18.4055    4.4507   22.2288    H 1 <0>  0.1500
  22   H2       17.6935    3.3446   24.3362    H 1 <0>  0.1500
  23   H3       15.2502    1.5878   24.3474    H 1 <0>  0.0000
  24   H4       13.8104    2.0289   25.2667    H 1 <0>  0.0000
  25   H5       15.5207    0.2562   26.3288    H 1 <0>  0.0000
  26   H6       16.9353    2.0466   27.8752    H 1 <0>  0.0000
  27   H7       14.6600    4.0746   26.0270    H 1 <0>  0.0000
  28   H8       18.8490    1.8078   26.4511    H 1 <0>  0.0000
  29   H9       17.8303    1.5497   25.0110    H 1 <0>  0.0000
  30  H10       17.6900    5.8967   20.4478    H 1 <0>  0.3999
  31  H11       16.0914    6.5981   20.3236    H 1 <0>  0.3999
  32  H12       14.7317    0.9304   28.3175    H 1 <0>  0.3999
@<TRIPOS>BOND
    1     1     2  1
    2     1     3  1
    3     2    11  1
    4     3    10  1
    5     3    12  1
    6     4    10  1
    7     4    11  1
    8     4    15  1
    9     5     6  1
   10     5     8  1
   11     6     7  1
   12     6    18  1
   13     7     9  1
   14     7    17  1
   15     8    11  1
   16     8    17  1
   17     9    19  1
   18    13    20  1
   19    14    20  1
   20    16    20  1
   21    19    20  1
   22     1    21  1
   23     2    22  1
   24     5    23  1
   25     5    24  1
   26     6    25  1
   27     7    26  1
   28     8    27  1
   29     9    28  1
   30     9    29  1
   31    12    30  1
   32    12    31  1
   33    18    32  1

@<TRIPOS>MOLECULE
MOL
   32   33    0    0    0
SMALL
USER_CHARGES


@<TRIPOS>ATOM
   1   C1       17.3606    4.5141   22.6018  C.2 1 <0> -0.1356
   2   C2       16.9814    3.9381   23.7408  C.2 1 <0> -0.0410
   3   C3       16.3385    5.3406   21.9081  C.2 1 <0>  0.4856
   4   C4       14.7598    4.8836   23.5793  C.2 1 <0>  0.8408
   5   C5       14.8975    2.0061   25.2975  C.3 1 <0>  0.0000
   6   C6       15.4128    1.3008   26.5308  C.3 1 <0>  0.2800
   7   C7       16.7283    2.0138   26.8111  C.3 1 <0>  0.2800
   8   C8       15.3939    3.4283   25.5003  C.3 1 <0>  0.5801
   9   C9       17.9106    1.3823   26.0876  C.3 1 <0>  0.2800
  10   N1       15.1340    5.4914   22.3931  N.2 1 <0> -0.6611
  11   N2       15.7091    4.0884   24.2673 N.am 1 <0> -0.4690
  12   N3       16.6901    5.9534   20.7279 N.pl3 1 <0> -0.8501
  13   O1       18.7676   -2.3524   26.1510  O.3 1 <0> -1.0332
  14   O2       20.3972   -0.3812   26.2318  O.3 1 <0> -1.0332
  15   O3       13.6196    5.0363   24.0213  O.2 1 <0> -0.5698
  16   O4       18.9314   -0.7527   24.1606  O.2 1 <0> -1.0332
  17   O5       16.5723    3.3576   26.3156  O.3 1 <0> -0.5601
  18   O6       14.5090    1.5061   27.6144  O.3 1 <0> -0.6802
  19   O7       17.9091   -0.0135   26.3390  O.3 1 <0> -0.5513
  20   P1       19.0969   -0.9440   25.6653  P.3 1 <0>  1.3711
  21   H1       18.3522    4.4020   22.1842    H 1 <0>  0.1500
  22   H2       17.6645    3.3188   24.3114    H 1 <0>  0.1500
  23   H3       15.2361    1.5422   24.3642    H 1 <0>  0.0000
  24   H4       13.7993    1.9839   25.2879    H 1 <0>  0.0000
  25   H5       15.5320    0.2399   26.3614    H 1 <0>  0.0000
  26   H6       16.9426    2.0627   27.8732    H 1 <0>  0.0000
  27   H7       14.6373    4.0467   26.0143    H 1 <0>  0.0000
  28   H8       18.8490    1.8078   26.4511    H 1 <0>  0.0000
  29   H9       17.8303    1.5497   25.0110    H 1 <0>  0.0000
  30  H10       17.6118    5.8178   20.3890    H 1 <0>  0.3999
  31  H11       16.0066    6.5042   20.2670    H 1 <0>  0.3999
  32  H12       14.7517    0.9345   28.3466    H 1 <0>  0.3999
@<TRIPOS>BOND
    1     1     2  1
    2     1     3  1
    3     2    11  1
    4     3    10  1
    5     3    12  1
    6     4    10  1
    7     4    11  1
    8     4    15  1
    9     5     6  1
   10     5     8  1
   11     6     7  1
   12     6    18  1
   13     7     9  1
   14     7    17  1
   15     8    11  1
   16     8    17  1
   17     9    19  1
   18    13    20  1
   19    14    20  1
   20    16    20  1
   21    19    20  1
   22     1    21  1
   23     2    22  1
   24     5    23  1
   25     5    24  1
   26     6    25  1
   27     7    26  1
   28     8    27  1
   29     9    28  1
   30     9    29  1
   31    12    30  1
   32    12    31  1
   33    18    32  1

@<TRIPOS>MOLECULE
MOL
   32   33    0    0    0
SMALL
USER_CHARGES


@<TRIPOS>ATOM
   1   C1       17.3094    4.4619   22.5639  C.2 1 <0> -0.1356
   2   C2       16.9433    3.8983   23.7133  C.2 1 <0> -0.0410
   3   C3       16.2756    5.2704   21.8666  C.2 1 <0>  0.4856
   4   C4       14.7127    4.8232   23.5553  C.2 1 <0>  0.8408
   5   C5       14.8868    1.9704   25.3111  C.3 1 <0>  0.0000
   6   C6       15.4168    1.2863   26.5500  C.3 1 <0>  0.2800
   7   C7       16.7283    2.0138   26.8111  C.3 1 <0>  0.2800
   8   C8       15.3728    3.3993   25.4911  C.3 1 <0>  0.5801
   9   C9       17.9106    1.3823   26.0876  C.3 1 <0>  0.2800
  10   N1       15.0733    5.4178   22.3582  N.2 1 <0> -0.6611
  11   N2       15.6736    4.0452   24.2470 N.am 1 <0> -0.4690
  12   N3       16.6135    5.8700   20.6756 N.pl3 1 <0> -0.8501
  13   O1       18.7676   -2.3524   26.1510  O.3 1 <0> -1.0332
  14   O2       20.3972   -0.3812   26.2318  O.3 1 <0> -1.0332
  15   O3       13.5746    4.9724   24.0035  O.2 1 <0> -0.5698
  16   O4       18.9314   -0.7527   24.1606  O.2 1 <0> -1.0332
  17   O5       16.5575    3.3494   26.2987  O.3 1 <0> -0.5601
  18   O6       14.5191    1.4988   27.6374  O.3 1 <0> -0.6802
  19   O7       17.9091   -0.0135   26.3390  O.3 1 <0> -0.5513
  20   P1       19.0969   -0.9440   25.6653  P.3 1 <0>  1.3711
  21   H1       18.2989    4.3523   22.1406    H 1 <0>  0.1500
  22   H2       17.6357    3.2924   24.2873    H 1 <0>  0.1500
  23   H3       15.2226    1.4967   24.3818    H 1 <0>  0.0000
  24   H4       13.7888    1.9391   25.3099    H 1 <0>  0.0000
  25   H5       15.5436    0.2242   26.3941    H 1 <0>  0.0000
  26   H6       16.9498    2.0789   27.8708    H 1 <0>  0.0000
  27   H7       14.6147    4.0184   26.0022    H 1 <0>  0.0000
  28   H8       18.8490    1.8078   26.4511    H 1 <0>  0.0000
  29   H9       17.8303    1.5497   25.0110    H 1 <0>  0.0000
  30  H10       17.5339    5.7374   20.3319    H 1 <0>  0.3999
  31  H11       15.9222    6.4088   20.2124    H 1 <0>  0.3999
  32  H12       14.7718    0.9392   28.3754    H 1 <0>  0.3999
@<TRIPOS>BOND
    1     1     2  1
    2     1     3  1
    3     2    11  1
    4     3    10  1
    5     3    12  1
    6     4    10  1
    7     4    11  1
    8     4    15  1
    9     5     6  1
   10     5     8  1
   11     6     7  1
   12     6    18  1
   13     7     9  1
   14     7    17  1
   15     8    11  1
   16     8    17  1
   17     9    19  1
   18    13    20  1
   19    14    20  1
   20    16    20  1
   21    19    20  1
   22     1    21  1
   23     2    22  1
   24     5    23  1
   25     5    24  1
   26     6    25  1
   27     7    26  1
   28     8    27  1
   29     9    28  1
   30     9    29  1
   31    12    30  1
   32    12    31  1
   33    18    32  1

@<TRIPOS>MOLECULE
MOL
   32   33    0    0    0
SMALL
USER_CHARGES


@<TRIPOS>ATOM
   1   C1       17.2585    4.4087   22.5271  C.2 1 <0> -0.1356
   2   C2       16.9053    3.8578   23.6866  C.2 1 <0> -0.0410
   3   C3       16.2130    5.1992   21.8265  C.2 1 <0>  0.4856
   4   C4       14.6661    4.7620   23.5324  C.2 1 <0>  0.8408
   5   C5       14.8765    1.9349   25.3253  C.3 1 <0>  0.0000
   6   C6       15.4210    1.2720   26.5694  C.3 1 <0>  0.2800
   7   C7       16.7283    2.0138   26.8111  C.3 1 <0>  0.2800
   8   C8       15.3519    3.3700   25.4824  C.3 1 <0>  0.5801
   9   C9       17.9106    1.3823   26.0876  C.3 1 <0>  0.2800
  10   N1       15.0131    5.3433   22.3248  N.2 1 <0> -0.6611
  11   N2       15.6383    4.0015   24.2275 N.am 1 <0> -0.4690
  12   N3       16.5373    5.7853   20.6251 N.pl3 1 <0> -0.8501
  13   O1       18.7676   -2.3524   26.1510  O.3 1 <0> -1.0332
  14   O2       20.3972   -0.3812   26.2318  O.3 1 <0> -1.0332
  15   O3       13.5299    4.9079   23.9868  O.2 1 <0> -0.5698
  16   O4       18.9314   -0.7527   24.1606  O.2 1 <0> -1.0332
  17   O5       16.5427    3.3409   26.2819  O.3 1 <0> -0.5601
  18   O6       14.5295    1.4918   27.6603  O.3 1 <0> -0.6802
  19   O7       17.9091   -0.0135   26.3390  O.3 1 <0> -0.5513
  20   P1       19.0969   -0.9440   25.6653  P.3 1 <0>  1.3711
  21   H1       18.2458    4.3015   22.0981    H 1 <0>  0.1500
  22   H2       17.6068    3.2655   24.2636    H 1 <0>  0.1500
  23   H3       15.2095    1.4514   24.4000    H 1 <0>  0.0000
  24   H4       13.7789    1.8945   25.3325    H 1 <0>  0.0000
  25   H5       15.5556    0.2090   26.4270    H 1 <0>  0.0000
  26   H6       16.9569    2.0951   27.8682    H 1 <0>  0.0000
  27   H7       14.5923    3.9897   25.9906    H 1 <0>  0.0000
  28   H8       18.8490    1.8078   26.4511    H 1 <0>  0.0000
  29   H9       17.8303    1.5497   25.0110    H 1 <0>  0.0000
  30  H10       17.4563    5.6556   20.2765    H 1 <0>  0.3999
  31  H11       15.8382    6.3120   20.1596    H 1 <0>  0.3999
  32  H12       14.7921    0.9444   28.4040    H 1 <0>  0.3999
@<TRIPOS>BOND
    1     1     2  1
    2     1     3  1
    3     2    11  1
    4     3    10  1
    5     3    12  1
    6     4    10  1
    7     4    11  1
    8     4    15  1
    9     5     6  1
   10     5     8  1
   11     6     7  1
   12     6    18  1
   13     7     9  1
   14     7    17  1
   15     8    11  1
   16     8    17  1
   17     9    19  1
   18    13    20  1
   19    14    20  1
   20    16    20  1
   21    19    20  1
   22     1    21  1
   23     2    22  1
   24     5    23  1
   25     5    24  1
   26     6    25  1
   27     7    26  1
   28     8    27  1
   29     9    28  1
   30     9    29  1
   31    12    30  1
   32    12    31  1
   33    18    32  1

@<TRIPOS>MOLECULE
MOL
   32   33    0    0    0
SMALL
USER_CHARGES


@<TRIPOS>ATOM
   1   C1       17.2077    4.3546   22.4913  C.2 1 <0> -0.1356
   2   C2       16.8675    3.8166   23.6608  C.2 1 <0> -0.0410
   3   C3       16.1507    5.1268   21.7878  C.2 1 <0>  0.4856
   4   C4       14.6197    4.7001   23.5107  C.2 1 <0>  0.8408
   5   C5       14.8666    1.8995   25.3400  C.3 1 <0>  0.0000
   6   C6       15.4256    1.2581   26.5890  C.3 1 <0>  0.2800
   7   C7       16.7283    2.0138   26.8111  C.3 1 <0>  0.2800
   8   C8       15.3311    3.3405   25.4743  C.3 1 <0>  0.5801
   9   C9       17.9106    1.3823   26.0876  C.3 1 <0>  0.2800
  10   N1       14.9532    5.2678   22.2929  N.2 1 <0> -0.6611
  11   N2       15.6032    3.9572   24.2089 N.am 1 <0> -0.4690
  12   N3       16.4615    5.6993   20.5762 N.pl3 1 <0> -0.8501
  13   O1       18.7676   -2.3524   26.1510  O.3 1 <0> -1.0332
  14   O2       20.3972   -0.3812   26.2318  O.3 1 <0> -1.0332
  15   O3       13.4857    4.8429   23.9714  O.2 1 <0> -0.5698
  16   O4       18.9314   -0.7527   24.1606  O.2 1 <0> -1.0332
  17   O5       16.5279    3.3320   26.2654  O.3 1 <0> -0.5601
  18   O6       14.5401    1.4853   27.6833  O.3 1 <0> -0.6802
  19   O7       17.9091   -0.0135   26.3390  O.3 1 <0> -0.5513
  20   P1       19.0969   -0.9440   25.6653  P.3 1 <0>  1.3711
  21   H1       18.1928    4.2497   22.0567    H 1 <0>  0.1500
  22   H2       17.5780    3.2380   24.2406    H 1 <0>  0.1500
  23   H3       15.1970    1.4062   24.4190    H 1 <0>  0.0000
  24   H4       13.7694    1.8502   25.3558    H 1 <0>  0.0000
  25   H5       15.5680    0.1943   26.4600    H 1 <0>  0.0000
  26   H6       16.9638    2.1113   27.8653    H 1 <0>  0.0000
  27   H7       14.5701    3.9607   25.9796    H 1 <0>  0.0000
  28   H8       18.8490    1.8078   26.4511    H 1 <0>  0.0000
  29   H9       17.8303    1.5497   25.0110    H 1 <0>  0.0000
  30  H10       17.3790    5.5724   20.2227    H 1 <0>  0.3999
  31  H11       15.7547    6.2138   20.1088    H 1 <0>  0.3999
  32  H12       14.8126    0.9503   28.4324    H 1 <0>  0.3999
@<TRIPOS>BOND
    1     1     2  1
    2     1     3  1
    3     2    11  1
    4     3    10  1
    5     3    12  1
    6     4    10  1
    7     4    11  1
    8     4    15  1
    9     5     6  1
   10     5     8  1
   11     6     7  1
   12     6    18  1
   13     7     9  1
   14     7    17  1
   15     8    11  1
   16     8    17  1
   17     9    19  1
   18    13    20  1
   19    14    20  1
   20    16    20  1
   21    19    20  1
   22     1    21  1
   23     2    22  1
   24     5    23  1
   25     5    24  1
   26     6    25  1
   27     7    26  1
   28     8    27  1
   29     9    28  1
   30     9    29  1
   31    12    30  1
   32    12    31  1
   33    18    32  1

@<TRIPOS>MOLECULE
MOL
   32   33    0    0    0
SMALL
USER_CHARGES


@<TRIPOS>ATOM
   1   C1       17.1572    4.2996   22.4567  C.2 1 <0> -0.1356
   2   C2       16.8298    3.7747   23.6358  C.2 1 <0> -0.0410
   3   C3       16.0887    5.0535   21.7505  C.2 1 <0>  0.4856
   4   C4       14.5738    4.6376   23.4901  C.2 1 <0>  0.8408
   5   C5       14.8571    1.8642   25.3553  C.3 1 <0>  0.0000
   6   C6       15.4304    1.2444   26.6088  C.3 1 <0>  0.2800
   7   C7       16.7283    2.0138   26.8111  C.3 1 <0>  0.2800
   8   C8       15.3105    3.3106   25.4667  C.3 1 <0>  0.5801
   9   C9       17.9106    1.3823   26.0876  C.3 1 <0>  0.2800
  10   N1       14.8937    5.1914   22.2623  N.2 1 <0> -0.6611
  11   N2       15.5684    3.9123   24.1912 N.am 1 <0> -0.4690
  12   N3       16.3860    5.6120   20.5291 N.pl3 1 <0> -0.8501
  13   O1       18.7676   -2.3524   26.1510  O.3 1 <0> -1.0332
  14   O2       20.3972   -0.3812   26.2318  O.3 1 <0> -1.0332
  15   O3       13.4419    4.7773   23.9571  O.2 1 <0> -0.5698
  16   O4       18.9314   -0.7527   24.1606  O.2 1 <0> -1.0332
  17   O5       16.5130    3.3228   26.2491  O.3 1 <0> -0.5601
  18   O6       14.5509    1.4792   27.7063  O.3 1 <0> -0.6802
  19   O7       17.9091   -0.0135   26.3390  O.3 1 <0> -0.5513
  20   P1       19.0969   -0.9440   25.6653  P.3 1 <0>  1.3711
  21   H1       18.1399    4.1970   22.0163    H 1 <0>  0.1500
  22   H2       17.5493    3.2099   24.2182    H 1 <0>  0.1500
  23   H3       15.1850    1.3612   24.4387    H 1 <0>  0.0000
  24   H4       13.7605    1.8060   25.3798    H 1 <0>  0.0000
  25   H5       15.5807    0.1802   26.4931    H 1 <0>  0.0000
  26   H6       16.9705    2.1276   27.8621    H 1 <0>  0.0000
  27   H7       14.5480    3.9314   25.9691    H 1 <0>  0.0000
  28   H8       18.8490    1.8078   26.4511    H 1 <0>  0.0000
  29   H9       17.8303    1.5497   25.0110    H 1 <0>  0.0000
  30  H10       17.3020    5.4879   20.1706    H 1 <0>  0.3999
  31  H11       15.6716    6.1143   20.0599    H 1 <0>  0.3999
  32  H12       14.8332    0.9566   28.4605    H 1 <0>  0.3999
@<TRIPOS>BOND
    1     1     2  1
    2     1     3  1
    3     2    11  1
    4     3    10  1
    5     3    12  1
    6     4    10  1
    7     4    11  1
    8     4    15  1
    9     5     6  1
   10     5     8  1
   11     6     7  1
   12     6    18  1
   13     7     9  1
   14     7    17  1
   15     8    11  1
   16     8    17  1
   17     9    19  1
   18    13    20  1
   19    14    20  1
   20    16    20  1
   21    19    20  1
   22     1    21  1
   23     2    22  1
   24     5    23  1
   25     5    24  1
   26     6    25  1
   27     7    26  1
   28     8    27  1
   29     9    28  1
   30     9    29  1
   31    12    30  1
   32    12    31  1
   33    18    32  1

@<TRIPOS>MOLECULE
MOL
   32   33    0    0    0
SMALL
USER_CHARGES


@<TRIPOS>ATOM
   1   C1       17.1068    4.2437   22.4232  C.2 1 <0> -0.1356
   2   C2       16.7924    3.7322   23.6116  C.2 1 <0> -0.0410
   3   C3       16.0270    4.9791   21.7147  C.2 1 <0>  0.4856
   4   C4       14.5282    4.5744   23.4708  C.2 1 <0>  0.8408
   5   C5       14.8480    1.8290   25.3712  C.3 1 <0>  0.0000
   6   C6       15.4354    1.2311   26.6287  C.3 1 <0>  0.2800
   7   C7       16.7283    2.0138   26.8111  C.3 1 <0>  0.2800
   8   C8       15.2901    3.2805   25.4597  C.3 1 <0>  0.5801
   9   C9       17.9106    1.3823   26.0876  C.3 1 <0>  0.2800
  10   N1       14.8347    5.1142   22.2333  N.2 1 <0> -0.6611
  11   N2       15.5338    3.8670   24.1743 N.am 1 <0> -0.4690
  12   N3       16.3109    5.5234   20.4837 N.pl3 1 <0> -0.8501
  13   O1       18.7676   -2.3524   26.1510  O.3 1 <0> -1.0332
  14   O2       20.3972   -0.3812   26.2318  O.3 1 <0> -1.0332
  15   O3       13.3986    4.7111   23.9441  O.2 1 <0> -0.5698
  16   O4       18.9314   -0.7527   24.1606  O.2 1 <0> -1.0332
  17   O5       16.4981    3.3132   26.2331  O.3 1 <0> -0.5601
  18   O6       14.5619    1.4735   27.7293  O.3 1 <0> -0.6802
  19   O7       17.9091   -0.0135   26.3390  O.3 1 <0> -0.5513
  20   P1       19.0969   -0.9440   25.6653  P.3 1 <0>  1.3711
  21   H1       18.0872    4.1432   21.9771    H 1 <0>  0.1500
  22   H2       17.5207    3.1813   24.1963    H 1 <0>  0.1500
  23   H3       15.1735    1.3164   24.4590    H 1 <0>  0.0000
  24   H4       13.7521    1.7622   25.4044    H 1 <0>  0.0000
  25   H5       15.5938    0.1667   26.5263    H 1 <0>  0.0000
  26   H6       16.9771    2.1438   27.8587    H 1 <0>  0.0000
  27   H7       14.5261    3.9018   25.9592    H 1 <0>  0.0000
  28   H8       18.8490    1.8078   26.4511    H 1 <0>  0.0000
  29   H9       17.8303    1.5497   25.0110    H 1 <0>  0.0000
  30  H10       17.2253    5.4020   20.1203    H 1 <0>  0.3999
  31  H11       15.5890    6.0134   20.0130    H 1 <0>  0.3999
  32  H12       14.8540    0.9635   28.4884    H 1 <0>  0.3999
@<TRIPOS>BOND
    1     1     2  1
    2     1     3  1
    3     2    11  1
    4     3    10  1
    5     3    12  1
    6     4    10  1
    7     4    11  1
    8     4    15  1
    9     5     6  1
   10     5     8  1
   11     6     7  1
   12     6    18  1
   13     7     9  1
   14     7    17  1
   15     8    11  1
   16     8    17  1
   17     9    19  1
   18    13    20  1
   19    14    20  1
   20    16    20  1
   21    19    20  1
   22     1    21  1
   23     2    22  1
   24     5    23  1
   25     5    24  1
   26     6    25  1
   27     7    26  1
   28     8    27  1
   29     9    28  1
   30     9    29  1
   31    12    30  1
   32    12    31  1
   33    18    32  1

@<TRIPOS>MOLECULE
MOL
   32   33    0    0    0
SMALL
USER_CHARGES


@<TRIPOS>ATOM
   1   C1       17.0567    4.1870   22.3908  C.2 1 <0> -0.1356
   2   C2       16.7551    3.6891   23.5883  C.2 1 <0> -0.0410
   3   C3       15.9657    4.9038   21.6803  C.2 1 <0>  0.4856
   4   C4       14.4830    4.5106   23.4526  C.2 1 <0>  0.8408
   5   C5       14.8393    1.7940   25.3875  C.3 1 <0>  0.0000
   6   C6       15.4407    1.2180   26.6487  C.3 1 <0>  0.2800
   7   C7       16.7283    2.0138   26.8111  C.3 1 <0>  0.2800
   8   C8       15.2700    3.2502   25.4532  C.3 1 <0>  0.5801
   9   C9       17.9106    1.3823   26.0876  C.3 1 <0>  0.2800
  10   N1       14.7761    5.0360   22.2057  N.2 1 <0> -0.6611
  11   N2       15.4995    3.8211   24.1582 N.am 1 <0> -0.4690
  12   N3       16.2362    5.4336   20.4400 N.pl3 1 <0> -0.8501
  13   O1       18.7676   -2.3524   26.1510  O.3 1 <0> -1.0332
  14   O2       20.3972   -0.3812   26.2318  O.3 1 <0> -1.0332
  15   O3       13.3557    4.6444   23.9322  O.2 1 <0> -0.5698
  16   O4       18.9314   -0.7527   24.1606  O.2 1 <0> -1.0332
  17   O5       16.4831    3.3033   26.2172  O.3 1 <0> -0.5601
  18   O6       14.5731    1.4682   27.7523  O.3 1 <0> -0.6802
  19   O7       17.9091   -0.0135   26.3390  O.3 1 <0> -0.5513
  20   P1       19.0969   -0.9440   25.6653  P.3 1 <0>  1.3711
  21   H1       18.0347    4.0885   21.9390    H 1 <0>  0.1500
  22   H2       17.4921    3.1522   24.1751    H 1 <0>  0.1500
  23   H3       15.1625    1.2717   24.4801    H 1 <0>  0.0000
  24   H4       13.7443    1.7186   25.4296    H 1 <0>  0.0000
  25   H5       15.6072    0.1537   26.5596    H 1 <0>  0.0000
  26   H6       16.9835    2.1601   27.8550    H 1 <0>  0.0000
  27   H7       14.5044    3.8718   25.9498    H 1 <0>  0.0000
  28   H8       18.8490    1.8078   26.4511    H 1 <0>  0.0000
  29   H9       17.8303    1.5497   25.0110    H 1 <0>  0.0000
  30  H10       17.1490    5.3148   20.0717    H 1 <0>  0.3999
  31  H11       15.5069    5.9112   19.9680    H 1 <0>  0.3999
  32  H12       14.8749    0.9710   28.5161    H 1 <0>  0.3999
@<TRIPOS>BOND
    1     1     2  1
    2     1     3  1
    3     2    11  1
    4     3    10  1
    5     3    12  1
    6     4    10  1
    7     4    11  1
    8     4    15  1
    9     5     6  1
   10     5     8  1
   11     6     7  1
   12     6    18  1
   13     7     9  1
   14     7    17  1
   15     8    11  1
   16     8    17  1
   17     9    19  1
   18    13    20  1
   19    14    20  1
   20    16    20  1
   21    19    20  1
   22     1    21  1
   23     2    22  1
   24     5    23  1
   25     5    24  1
   26     6    25  1
   27     7    26  1
   28     8    27  1
   29     9    28  1
   30     9    29  1
   31    12    30  1
   32    12    31  1
   33    18    32  1

@<TRIPOS>MOLECULE
MOL
   32   33    0    0    0
SMALL
USER_CHARGES


@<TRIPOS>ATOM
   1   C1       17.0068    4.1294   22.3596  C.2 1 <0> -0.1356
   2   C2       16.7179    3.6454   23.5658  C.2 1 <0> -0.0410
   3   C3       15.9049    4.8275   21.6474  C.2 1 <0>  0.4856
   4   C4       14.4382    4.4462   23.4356  C.2 1 <0>  0.8408
   5   C5       14.8310    1.7591   25.4045  C.3 1 <0>  0.0000
   6   C6       15.4462    1.2053   26.6688  C.3 1 <0>  0.2800
   7   C7       16.7283    2.0138   26.8111  C.3 1 <0>  0.2800
   8   C8       15.2500    3.2196   25.4473  C.3 1 <0>  0.5801
   9   C9       17.9106    1.3823   26.0876  C.3 1 <0>  0.2800
  10   N1       14.7179    4.9570   22.1797  N.2 1 <0> -0.6611
  11   N2       15.4655    3.7747   24.1431 N.am 1 <0> -0.4690
  12   N3       16.1620    5.3426   20.3981 N.pl3 1 <0> -0.8501
  13   O1       18.7676   -2.3524   26.1510  O.3 1 <0> -1.0332
  14   O2       20.3972   -0.3812   26.2318  O.3 1 <0> -1.0332
  15   O3       13.3133    4.5772   23.9216  O.2 1 <0> -0.5698
  16   O4       18.9314   -0.7527   24.1606  O.2 1 <0> -1.0332
  17   O5       16.4681    3.2931   26.2017  O.3 1 <0> -0.5601
  18   O6       14.5846    1.4632   27.7753  O.3 1 <0> -0.6802
  19   O7       17.9091   -0.0135   26.3390  O.3 1 <0> -0.5513
  20   P1       19.0969   -0.9440   25.6653  P.3 1 <0>  1.3711
  21   H1       17.9823    4.0329   21.9020    H 1 <0>  0.1500
  22   H2       17.4637    3.1226   24.1544    H 1 <0>  0.1500
  23   H3       15.1521    1.2272   24.5018    H 1 <0>  0.0000
  24   H4       13.7370    1.6753   25.4555    H 1 <0>  0.0000
  25   H5       15.6210    0.1413   26.5929    H 1 <0>  0.0000
  26   H6       16.9898    2.1764   27.8511    H 1 <0>  0.0000
  27   H7       14.4828    3.8415   25.9410    H 1 <0>  0.0000
  28   H8       18.8490    1.8078   26.4511    H 1 <0>  0.0000
  29   H9       17.8303    1.5497   25.0110    H 1 <0>  0.0000
  30  H10       17.0731    5.2264   20.0248    H 1 <0>  0.3999
  31  H11       15.4254    5.8078   19.9251    H 1 <0>  0.3999
  32  H12       14.8960    0.9790   28.5435    H 1 <0>  0.3999
@<TRIPOS>BOND
    1     1     2  1
    2     1     3  1
    3     2    11  1
    4     3    10  1
    5     3    12  1
    6     4    10  1
    7     4    11  1
    8     4    15  1
    9     5     6  1
   10     5     8  1
   11     6     7  1
   12     6    18  1
   13     7     9  1
   14     7    17  1
   15     8    11  1
   16     8    17  1
   17     9    19  1
   18    13    20  1
   19    14    20  1
   20    16    20  1
   21    19    20  1
   22     1    21  1
   23     2    22  1
   24     5    23  1
   25     5    24  1
   26     6    25  1
   27     7    26  1
   28     8    27  1
   29     9    28  1
   30     9    29  1
   31    12    30  1
   32    12    31  1
   33    18    32  1

@<TRIPOS>MOLECULE
MOL
   32   33    0    0    0
SMALL
USER_CHARGES


@<TRIPOS>ATOM
   1   C1       16.9572    4.0710   22.3295  C.2 1 <0> -0.1356
   2   C2       16.6810    3.6010   23.5442  C.2 1 <0> -0.0410
   3   C3       15.8444    4.7502   21.6160  C.2 1 <0>  0.4856
   4   C4       14.3938    4.3812   23.4198  C.2 1 <0>  0.8408
   5   C5       14.8232    1.7244   25.4219  C.3 1 <0>  0.0000
   6   C6       15.4520    1.1929   26.6891  C.3 1 <0>  0.2800
   7   C7       16.7283    2.0138   26.8111  C.3 1 <0>  0.2800
   8   C8       15.2302    3.1887   25.4419  C.3 1 <0>  0.5801
   9   C9       17.9106    1.3823   26.0876  C.3 1 <0>  0.2800
  10   N1       14.6603    4.8772   22.1551  N.2 1 <0> -0.6611
  11   N2       15.4317    3.7279   24.1288 N.am 1 <0> -0.4690
  12   N3       16.0883    5.2505   20.3580 N.pl3 1 <0> -0.8501
  13   O1       18.7676   -2.3524   26.1510  O.3 1 <0> -1.0332
  14   O2       20.3972   -0.3812   26.2318  O.3 1 <0> -1.0332
  15   O3       13.2714    4.5095   23.9122  O.2 1 <0> -0.5698
  16   O4       18.9314   -0.7527   24.1606  O.2 1 <0> -1.0332
  17   O5       16.4531    3.2825   26.1863  O.3 1 <0> -0.5601
  18   O6       14.5962    1.4587   27.7982  O.3 1 <0> -0.6802
  19   O7       17.9091   -0.0135   26.3390  O.3 1 <0> -0.5513
  20   P1       19.0969   -0.9440   25.6653  P.3 1 <0>  1.3711
  21   H1       17.9302    3.9763   21.8661    H 1 <0>  0.1500
  22   H2       17.4353    3.0924   24.1344    H 1 <0>  0.1500
  23   H3       15.1421    1.1830   24.5242    H 1 <0>  0.0000
  24   H4       13.7303    1.6323   25.4821    H 1 <0>  0.0000
  25   H5       15.6351    0.1294   26.6263    H 1 <0>  0.0000
  26   H6       16.9959    2.1926   27.8468    H 1 <0>  0.0000
  27   H7       14.4615    3.8110   25.9328    H 1 <0>  0.0000
  28   H8       18.8490    1.8078   26.4511    H 1 <0>  0.0000
  29   H9       17.8303    1.5497   25.0110    H 1 <0>  0.0000
  30  H10       16.9975    5.1367   19.9796    H 1 <0>  0.3999
  31  H11       15.3444    5.7030   19.8841    H 1 <0>  0.3999
  32  H12       14.9171    0.9875   28.5707    H 1 <0>  0.3999
@<TRIPOS>BOND
    1     1     2  1
    2     1     3  1
    3     2    11  1
    4     3    10  1
    5     3    12  1
    6     4    10  1
    7     4    11  1
    8     4    15  1
    9     5     6  1
   10     5     8  1
   11     6     7  1
   12     6    18  1
   13     7     9  1
   14     7    17  1
   15     8    11  1
   16     8    17  1
   17     9    19  1
   18    13    20  1
   19    14    20  1
   20    16    20  1
   21    19    20  1
   22     1    21  1
   23     2    22  1
   24     5    23  1
   25     5    24  1
   26     6    25  1
   27     7    26  1
   28     8    27  1
   29     9    28  1
   30     9    29  1
   31    12    30  1
   32    12    31  1
   33    18    32  1

@<TRIPOS>MOLECULE
MOL
   32   33    0    0    0
SMALL
USER_CHARGES


@<TRIPOS>ATOM
   1   C1       16.9079    4.0118   22.3005  C.2 1 <0> -0.1356
   2   C2       16.6444    3.5561   23.5235  C.2 1 <0> -0.0410
   3   C3       15.7843    4.6721   21.5860  C.2 1 <0>  0.4856
   4   C4       14.3499    4.3156   23.4053  C.2 1 <0>  0.8408
   5   C5       14.8157    1.6899   25.4399  C.3 1 <0>  0.0000
   6   C6       15.4581    1.1808   26.7096  C.3 1 <0>  0.2800
   7   C7       16.7283    2.0138   26.8111  C.3 1 <0>  0.2800
   8   C8       15.2107    3.1576   25.4371  C.3 1 <0>  0.5801
   9   C9       17.9106    1.3823   26.0876  C.3 1 <0>  0.2800
  10   N1       14.6031    4.7966   22.1320  N.2 1 <0> -0.6611
  11   N2       15.3982    3.6805   24.1154 N.am 1 <0> -0.4690
  12   N3       16.0150    5.1572   20.3197 N.pl3 1 <0> -0.8501
  13   O1       18.7676   -2.3524   26.1510  O.3 1 <0> -1.0332
  14   O2       20.3972   -0.3812   26.2318  O.3 1 <0> -1.0332
  15   O3       13.2300    4.4413   23.9040  O.2 1 <0> -0.5698
  16   O4       18.9314   -0.7527   24.1606  O.2 1 <0> -1.0332
  17   O5       16.4380    3.2716   26.1713  O.3 1 <0> -0.5601
  18   O6       14.6081    1.4546   27.8212  O.3 1 <0> -0.6802
  19   O7       17.9091   -0.0135   26.3390  O.3 1 <0> -0.5513
  20   P1       19.0969   -0.9440   25.6653  P.3 1 <0>  1.3711
  21   H1       17.8782    3.9188   21.8314    H 1 <0>  0.1500
  22   H2       17.4070    3.0618   24.1150    H 1 <0>  0.1500
  23   H3       15.1327    1.1390   24.5472    H 1 <0>  0.0000
  24   H4       13.7241    1.5896   25.5093    H 1 <0>  0.0000
  25   H5       15.6495    0.1182   26.6598    H 1 <0>  0.0000
  26   H6       17.0018    2.2089   27.8423    H 1 <0>  0.0000
  27   H7       14.4403    3.7802   25.9251    H 1 <0>  0.0000
  28   H8       18.8490    1.8078   26.4511    H 1 <0>  0.0000
  29   H9       17.8303    1.5497   25.0110    H 1 <0>  0.0000
  30  H10       16.9224    5.0458   19.9363    H 1 <0>  0.3999
  31  H11       15.2640    5.5971   19.8451    H 1 <0>  0.3999
  32  H12       14.9384    0.9966   28.5975    H 1 <0>  0.3999
@<TRIPOS>BOND
    1     1     2  1
    2     1     3  1
    3     2    11  1
    4     3    10  1
    5     3    12  1
    6     4    10  1
    7     4    11  1
    8     4    15  1
    9     5     6  1
   10     5     8  1
   11     6     7  1
   12     6    18  1
   13     7     9  1
   14     7    17  1
   15     8    11  1
   16     8    17  1
   17     9    19  1
   18    13    20  1
   19    14    20  1
   20    16    20  1
   21    19    20  1
   22     1    21  1
   23     2    22  1
   24     5    23  1
   25     5    24  1
   26     6    25  1
   27     7    26  1
   28     8    27  1
   29     9    28  1
   30     9    29  1
   31    12    30  1
   32    12    31  1
   33    18    32  1

@<TRIPOS>MOLECULE
MOL
   32   33    0    0    0
SMALL
USER_CHARGES


@<TRIPOS>ATOM
   1   C1       16.8588    3.9518   22.2727  C.2 1 <0> -0.1356
   2   C2       16.6079    3.5105   23.5037  C.2 1 <0> -0.0410
   3   C3       15.7247    4.5930   21.5576  C.2 1 <0>  0.4856
   4   C4       14.3064    4.2495   23.3919  C.2 1 <0>  0.8408
   5   C5       14.8087    1.6556   25.4583  C.3 1 <0>  0.0000
   6   C6       15.4644    1.1691   26.7301  C.3 1 <0>  0.2800
   7   C7       16.7283    2.0138   26.8111  C.3 1 <0>  0.2800
   8   C8       15.1914    3.1263   25.4329  C.3 1 <0>  0.5801
   9   C9       17.9106    1.3823   26.0876  C.3 1 <0>  0.2800
  10   N1       14.5464    4.7152   22.1105  N.2 1 <0> -0.6611
  11   N2       15.3651    3.6328   24.1029 N.am 1 <0> -0.4690
  12   N3       15.9422    5.0628   20.2832 N.pl3 1 <0> -0.8501
  13   O1       18.7676   -2.3524   26.1510  O.3 1 <0> -1.0332
  14   O2       20.3972   -0.3812   26.2318  O.3 1 <0> -1.0332
  15   O3       13.1891    4.3727   23.8970  O.2 1 <0> -0.5698
  16   O4       18.9314   -0.7527   24.1606  O.2 1 <0> -1.0332
  17   O5       16.4229    3.2603   26.1565  O.3 1 <0> -0.5601
  18   O6       14.6201    1.4510   27.8441  O.3 1 <0> -0.6802
  19   O7       17.9091   -0.0135   26.3390  O.3 1 <0> -0.5513
  20   P1       19.0969   -0.9440   25.6653  P.3 1 <0>  1.3711
  21   H1       17.8265    3.8605   21.7979    H 1 <0>  0.1500
  22   H2       17.3789    3.0306   24.0962    H 1 <0>  0.1500
  23   H3       15.1239    1.0952   24.5710    H 1 <0>  0.0000
  24   H4       13.7185    1.5472   25.5371    H 1 <0>  0.0000
  25   H5       15.6643    0.1075   26.6933    H 1 <0>  0.0000
  26   H6       17.0076    2.2251   27.8376    H 1 <0>  0.0000
  27   H7       14.4194    3.7491   25.9180    H 1 <0>  0.0000
  28   H8       18.8490    1.8078   26.4511    H 1 <0>  0.0000
  29   H9       17.8303    1.5497   25.0110    H 1 <0>  0.0000
  30  H10       16.8478    4.9537   19.8947    H 1 <0>  0.3999
  31  H11       15.1842    5.4900   19.8082    H 1 <0>  0.3999
  32  H12       14.9599    1.0063   28.6241    H 1 <0>  0.3999
@<TRIPOS>BOND
    1     1     2  1
    2     1     3  1
    3     2    11  1
    4     3    10  1
    5     3    12  1
    6     4    10  1
    7     4    11  1
    8     4    15  1
    9     5     6  1
   10     5     8  1
   11     6     7  1
   12     6    18  1
   13     7     9  1
   14     7    17  1
   15     8    11  1
   16     8    17  1
   17     9    19  1
   18    13    20  1
   19    14    20  1
   20    16    20  1
   21    19    20  1
   22     1    21  1
   23     2    22  1
   24     5    23  1
   25     5    24  1
   26     6    25  1
   27     7    26  1
   28     8    27  1
   29     9    28  1
   30     9    29  1
   31    12    30  1
   32    12    31  1
   33    18    32  1

@<TRIPOS>MOLECULE
MOL
   32   33    0    0    0
SMALL
USER_CHARGES


@<TRIPOS>ATOM
   1   C1       16.8101    3.8910   22.2461  C.2 1 <0> -0.1356
   2   C2       16.5717    3.4645   23.4847  C.2 1 <0> -0.0410
   3   C3       15.6655    4.5131   21.5307  C.2 1 <0>  0.4856
   4   C4       14.2633    4.1828   23.3797  C.2 1 <0>  0.8408
   5   C5       14.8021    1.6214   25.4773  C.3 1 <0>  0.0000
   6   C6       15.4709    1.1577   26.7507  C.3 1 <0>  0.2800
   7   C7       16.7283    2.0138   26.8111  C.3 1 <0>  0.2800
   8   C8       15.1723    3.0948   25.4292  C.3 1 <0>  0.5801
   9   C9       17.9106    1.3823   26.0876  C.3 1 <0>  0.2800
  10   N1       14.4903    4.6331   22.0904  N.2 1 <0> -0.6611
  11   N2       15.3322    3.5846   24.0913 N.am 1 <0> -0.4690
  12   N3       15.8700    4.9673   20.2485 N.pl3 1 <0> -0.8501
  13   O1       18.7676   -2.3524   26.1510  O.3 1 <0> -1.0332
  14   O2       20.3972   -0.3812   26.2318  O.3 1 <0> -1.0332
  15   O3       13.1487    4.3037   23.8913  O.2 1 <0> -0.5698
  16   O4       18.9314   -0.7527   24.1606  O.2 1 <0> -1.0332
  17   O5       16.4079    3.2488   26.1419  O.3 1 <0> -0.5601
  18   O6       14.6323    1.4477   27.8669  O.3 1 <0> -0.6802
  19   O7       17.9091   -0.0135   26.3390  O.3 1 <0> -0.5513
  20   P1       19.0969   -0.9440   25.6653  P.3 1 <0>  1.3711
  21   H1       17.7751    3.8012   21.7655    H 1 <0>  0.1500
  22   H2       17.3509    2.9990   24.0780    H 1 <0>  0.1500
  23   H3       15.1156    1.0517   24.5954    H 1 <0>  0.0000
  24   H4       13.7134    1.5051   25.5655    H 1 <0>  0.0000
  25   H5       15.6794    0.0973   26.7268    H 1 <0>  0.0000
  26   H6       17.0132    2.2413   27.8326    H 1 <0>  0.0000
  27   H7       14.3986    3.7177   25.9115    H 1 <0>  0.0000
  28   H8       18.8490    1.8078   26.4511    H 1 <0>  0.0000
  29   H9       17.8303    1.5497   25.0110    H 1 <0>  0.0000
  30  H10       16.7736    4.8604   19.8549    H 1 <0>  0.3999
  31  H11       15.1050    5.3818   19.7733    H 1 <0>  0.3999
  32  H12       14.9814    1.0164   28.6504    H 1 <0>  0.3999
@<TRIPOS>BOND
    1     1     2  1
    2     1     3  1
    3     2    11  1
    4     3    10  1
    5     3    12  1
    6     4    10  1
    7     4    11  1
    8     4    15  1
    9     5     6  1
   10     5     8  1
   11     6     7  1
   12     6    18  1
   13     7     9  1
   14     7    17  1
   15     8    11  1
   16     8    17  1
   17     9    19  1
   18    13    20  1
   19    14    20  1
   20    16    20  1
   21    19    20  1
   22     1    21  1
   23     2    22  1
   24     5    23  1
   25     5    24  1
   26     6    25  1
   27     7    26  1
   28     8    27  1
   29     9    28  1
   30     9    29  1
   31    12    30  1
   32    12    31  1
   33    18    32  1

@<TRIPOS>MOLECULE
MOL
   32   33    0    0    0
SMALL
USER_CHARGES


@<TRIPOS>ATOM
   1   C1       16.7616    3.8295   22.2207  C.2 1 <0> -0.1356
   2   C2       16.5357    3.4178   23.4666  C.2 1 <0> -0.0410
   3   C3       15.6068    4.4323   21.5053  C.2 1 <0>  0.4856
   4   C4       14.2207    4.1157   23.3688  C.2 1 <0>  0.8408
   5   C5       14.7959    1.5875   25.4969  C.3 1 <0>  0.0000
   6   C6       15.4777    1.1466   26.7715  C.3 1 <0>  0.2800
   7   C7       16.7283    2.0138   26.8111  C.3 1 <0>  0.2800
   8   C8       15.1535    3.0631   25.4261  C.3 1 <0>  0.5801
   9   C9       17.9106    1.3823   26.0876  C.3 1 <0>  0.2800
  10   N1       14.4347    4.5502   22.0719  N.2 1 <0> -0.6611
  11   N2       15.2997    3.5359   24.0805 N.am 1 <0> -0.4690
  12   N3       15.7983    4.8707   20.2156 N.pl3 1 <0> -0.8501
  13   O1       18.7676   -2.3524   26.1510  O.3 1 <0> -1.0332
  14   O2       20.3972   -0.3812   26.2318  O.3 1 <0> -1.0332
  15   O3       13.1089    4.2342   23.8868  O.2 1 <0> -0.5698
  16   O4       18.9314   -0.7527   24.1606  O.2 1 <0> -1.0332
  17   O5       16.3928    3.2369   26.1277  O.3 1 <0> -0.5601
  18   O6       14.6448    1.4448   27.8897  O.3 1 <0> -0.6802
  19   O7       17.9091   -0.0135   26.3390  O.3 1 <0> -0.5513
  20   P1       19.0969   -0.9440   25.6653  P.3 1 <0>  1.3711
  21   H1       17.7239    3.7411   21.7343    H 1 <0>  0.1500
  22   H2       17.3230    2.9669   24.0605    H 1 <0>  0.1500
  23   H3       15.1078    1.0084   24.6204    H 1 <0>  0.0000
  24   H4       13.7089    1.4635   25.5945    H 1 <0>  0.0000
  25   H5       15.6949    0.0878   26.7604    H 1 <0>  0.0000
  26   H6       17.0186    2.2575   27.8273    H 1 <0>  0.0000
  27   H7       14.3781    3.6861   25.9056    H 1 <0>  0.0000
  28   H8       18.8490    1.8078   26.4511    H 1 <0>  0.0000
  29   H9       17.8303    1.5497   25.0110    H 1 <0>  0.0000
  30  H10       16.6999    4.7659   19.8169    H 1 <0>  0.3999
  31  H11       15.0265    5.2724   19.7404    H 1 <0>  0.3999
  32  H12       15.0030    1.0271   28.6764    H 1 <0>  0.3999
@<TRIPOS>BOND
    1     1     2  1
    2     1     3  1
    3     2    11  1
    4     3    10  1
    5     3    12  1
    6     4    10  1
    7     4    11  1
    8     4    15  1
    9     5     6  1
   10     5     8  1
   11     6     7  1
   12     6    18  1
   13     7     9  1
   14     7    17  1
   15     8    11  1
   16     8    17  1
   17     9    19  1
   18    13    20  1
   19    14    20  1
   20    16    20  1
   21    19    20  1
   22     1    21  1
   23     2    22  1
   24     5    23  1
   25     5    24  1
   26     6    25  1
   27     7    26  1
   28     8    27  1
   29     9    28  1
   30     9    29  1
   31    12    30  1
   32    12    31  1
   33    18    32  1

@<TRIPOS>MOLECULE
MOL
   32   33    0    0    0
SMALL
USER_CHARGES


@<TRIPOS>ATOM
   1   C1       16.7135    3.7672   22.1964  C.2 1 <0> -0.1356
   2   C2       16.5000    3.3706   23.4494  C.2 1 <0> -0.0410
   3   C3       15.5486    4.3508   21.4814  C.2 1 <0>  0.4856
   4   C4       14.1786    4.0480   23.3591  C.2 1 <0>  0.8408
   5   C5       14.7901    1.5538   25.5169  C.3 1 <0>  0.0000
   6   C6       15.4847    1.1359   26.7923  C.3 1 <0>  0.2800
   7   C7       16.7283    2.0138   26.8111  C.3 1 <0>  0.2800
   8   C8       15.1349    3.0312   25.4236  C.3 1 <0>  0.5801
   9   C9       17.9106    1.3823   26.0876  C.3 1 <0>  0.2800
  10   N1       14.3796    4.4666   22.0549  N.2 1 <0> -0.6611
  11   N2       15.2675    3.4869   24.0707 N.am 1 <0> -0.4690
  12   N3       15.7271    4.7732   20.1845 N.pl3 1 <0> -0.8501
  13   O1       18.7676   -2.3524   26.1510  O.3 1 <0> -1.0332
  14   O2       20.3972   -0.3812   26.2318  O.3 1 <0> -1.0332
  15   O3       13.0696    4.1644   23.8835  O.2 1 <0> -0.5698
  16   O4       18.9314   -0.7527   24.1606  O.2 1 <0> -1.0332
  17   O5       16.3777    3.2247   26.1136  O.3 1 <0> -0.5601
  18   O6       14.6574    1.4424   27.9125  O.3 1 <0> -0.6802
  19   O7       17.9091   -0.0135   26.3390  O.3 1 <0> -0.5513
  20   P1       19.0969   -0.9440   25.6653  P.3 1 <0>  1.3711
  21   H1       17.6729    3.6802   21.7043    H 1 <0>  0.1500
  22   H2       17.2953    2.9344   24.0436    H 1 <0>  0.1500
  23   H3       15.1005    0.9655   24.6460    H 1 <0>  0.0000
  24   H4       13.7050    1.4221   25.6241    H 1 <0>  0.0000
  25   H5       15.7106    0.0788   26.7940    H 1 <0>  0.0000
  26   H6       17.0238    2.2736   27.8218    H 1 <0>  0.0000
  27   H7       14.3578    3.6542   25.9002    H 1 <0>  0.0000
  28   H8       18.8490    1.8078   26.4511    H 1 <0>  0.0000
  29   H9       17.8303    1.5497   25.0110    H 1 <0>  0.0000
  30  H10       16.6267    4.6704   19.7807    H 1 <0>  0.3999
  31  H11       14.9486    5.1620   19.7096    H 1 <0>  0.3999
  32  H12       15.0247    1.0384   28.7021    H 1 <0>  0.3999
@<TRIPOS>BOND
    1     1     2  1
    2     1     3  1
    3     2    11  1
    4     3    10  1
    5     3    12  1
    6     4    10  1
    7     4    11  1
    8     4    15  1
    9     5     6  1
   10     5     8  1
   11     6     7  1
   12     6    18  1
   13     7     9  1
   14     7    17  1
   15     8    11  1
   16     8    17  1
   17     9    19  1
   18    13    20  1
   19    14    20  1
   20    16    20  1
   21    19    20  1
   22     1    21  1
   23     2    22  1
   24     5    23  1
   25     5    24  1
   26     6    25  1
   27     7    26  1
   28     8    27  1
   29     9    28  1
   30     9    29  1
   31    12    30  1
   32    12    31  1
   33    18    32  1

@<TRIPOS>MOLECULE
MOL
   32   33    0    0    0
SMALL
USER_CHARGES


@<TRIPOS>ATOM
   1   C1       16.6658    3.7042   22.1734  C.2 1 <0> -0.1356
   2   C2       16.4646    3.3230   23.4332  C.2 1 <0> -0.0410
   3   C3       15.4910    4.2684   21.4590  C.2 1 <0>  0.4856
   4   C4       14.1371    3.9799   23.3506  C.2 1 <0>  0.8408
   5   C5       14.7848    1.5203   25.5374  C.3 1 <0>  0.0000
   6   C6       15.4920    1.1255   26.8133  C.3 1 <0>  0.2800
   7   C7       16.7283    2.0138   26.8111  C.3 1 <0>  0.2800
   8   C8       15.1165    2.9991   25.4216  C.3 1 <0>  0.5801
   9   C9       17.9106    1.3823   26.0876  C.3 1 <0>  0.2800
  10   N1       14.3252    4.3824   22.0394  N.2 1 <0> -0.6611
  11   N2       15.2356    3.4375   24.0618 N.am 1 <0> -0.4690
  12   N3       15.6566    4.6746   20.1553 N.pl3 1 <0> -0.8501
  13   O1       18.7676   -2.3524   26.1510  O.3 1 <0> -1.0332
  14   O2       20.3972   -0.3812   26.2318  O.3 1 <0> -1.0332
  15   O3       13.0309    4.0943   23.8815  O.2 1 <0> -0.5698
  16   O4       18.9314   -0.7527   24.1606  O.2 1 <0> -1.0332
  17   O5       16.3626    3.2122   26.0999  O.3 1 <0> -0.5601
  18   O6       14.6702    1.4403   27.9352  O.3 1 <0> -0.6802
  19   O7       17.9091   -0.0135   26.3390  O.3 1 <0> -0.5513
  20   P1       19.0969   -0.9440   25.6653  P.3 1 <0>  1.3711
  21   H1       17.6223    3.6184   21.6755    H 1 <0>  0.1500
  22   H2       17.2677    2.9013   24.0273    H 1 <0>  0.1500
  23   H3       15.0938    0.9228   24.6723    H 1 <0>  0.0000
  24   H4       13.7016    1.3812   25.6543    H 1 <0>  0.0000
  25   H5       15.7267    0.0704   26.8276    H 1 <0>  0.0000
  26   H6       17.0289    2.2898   27.8160    H 1 <0>  0.0000
  27   H7       14.3377    3.6221   25.8954    H 1 <0>  0.0000
  28   H8       18.8490    1.8078   26.4511    H 1 <0>  0.0000
  29   H9       17.8303    1.5497   25.0110    H 1 <0>  0.0000
  30  H10       16.5541    4.5738   19.7464    H 1 <0>  0.3999
  31  H11       14.8715    5.0505   19.6809    H 1 <0>  0.3999
  32  H12       15.0465    1.0501   28.7275    H 1 <0>  0.3999
@<TRIPOS>BOND
    1     1     2  1
    2     1     3  1
    3     2    11  1
    4     3    10  1
    5     3    12  1
    6     4    10  1
    7     4    11  1
    8     4    15  1
    9     5     6  1
   10     5     8  1
   11     6     7  1
   12     6    18  1
   13     7     9  1
   14     7    17  1
   15     8    11  1
   16     8    17  1
   17     9    19  1
   18    13    20  1
   19    14    20  1
   20    16    20  1
   21    19    20  1
   22     1    21  1
   23     2    22  1
   24     5    23  1
   25     5    24  1
   26     6    25  1
   27     7    26  1
   28     8    27  1
   29     9    28  1
   30     9    29  1
   31    12    30  1
   32    12    31  1
   33    18    32  1

@<TRIPOS>MOLECULE
MOL
   32   33    0    0    0
SMALL
USER_CHARGES


@<TRIPOS>ATOM
   1   C1       16.6184    3.6405   22.1516  C.2 1 <0> -0.1356
   2   C2       16.4294    3.2748   23.4178  C.2 1 <0> -0.0410
   3   C3       15.4338    4.1852   21.4382  C.2 1 <0>  0.4856
   4   C4       14.0960    3.9113   23.3433  C.2 1 <0>  0.8408
   5   C5       14.7799    1.4871   25.5584  C.3 1 <0>  0.0000
   6   C6       15.4995    1.1155   26.8343  C.3 1 <0>  0.2800
   7   C7       16.7283    2.0138   26.8111  C.3 1 <0>  0.2800
   8   C8       15.0984    2.9668   25.4202  C.3 1 <0>  0.5801
   9   C9       17.9106    1.3823   26.0876  C.3 1 <0>  0.2800
  10   N1       14.2713    4.2975   22.0255  N.2 1 <0> -0.6611
  11   N2       15.2041    3.3877   24.0537 N.am 1 <0> -0.4690
  12   N3       15.5867    4.5751   20.1280 N.pl3 1 <0> -0.8501
  13   O1       18.7676   -2.3524   26.1510  O.3 1 <0> -1.0332
  14   O2       20.3972   -0.3812   26.2318  O.3 1 <0> -1.0332
  15   O3       12.9927    4.0238   23.8807  O.2 1 <0> -0.5698
  16   O4       18.9314   -0.7527   24.1606  O.2 1 <0> -1.0332
  17   O5       16.3475    3.1994   26.0865  O.3 1 <0> -0.5601
  18   O6       14.6832    1.4387   27.9578  O.3 1 <0> -0.6802
  19   O7       17.9091   -0.0135   26.3390  O.3 1 <0> -0.5513
  20   P1       19.0969   -0.9440   25.6653  P.3 1 <0>  1.3711
  21   H1       17.5720    3.5559   21.6479    H 1 <0>  0.1500
  22   H2       17.2403    2.8679   24.0117    H 1 <0>  0.1500
  23   H3       15.0877    0.8804   24.6993    H 1 <0>  0.0000
  24   H4       13.6987    1.3406   25.6850    H 1 <0>  0.0000
  25   H5       15.7431    0.0627   26.8611    H 1 <0>  0.0000
  26   H6       17.0338    2.3058   27.8099    H 1 <0>  0.0000
  27   H7       14.3179    3.5897   25.8912    H 1 <0>  0.0000
  28   H8       18.8490    1.8078   26.4511    H 1 <0>  0.0000
  29   H9       17.8303    1.5497   25.0110    H 1 <0>  0.0000
  30  H10       16.4821    4.4761   19.7139    H 1 <0>  0.3999
  31  H11       14.7951    4.9381   19.6542    H 1 <0>  0.3999
  32  H12       15.0684    1.0624   28.7526    H 1 <0>  0.3999
@<TRIPOS>BOND
    1     1     2  1
    2     1     3  1
    3     2    11  1
    4     3    10  1
    5     3    12  1
    6     4    10  1
    7     4    11  1
    8     4    15  1
    9     5     6  1
   10     5     8  1
   11     6     7  1
   12     6    18  1
   13     7     9  1
   14     7    17  1
   15     8    11  1
   16     8    17  1
   17     9    19  1
   18    13    20  1
   19    14    20  1
   20    16    20  1
   21    19    20  1
   22     1    21  1
   23     2    22  1
   24     5    23  1
   25     5    24  1
   26     6    25  1
   27     7    26  1
   28     8    27  1
   29     9    28  1
   30     9    29  1
   31    12    30  1
   32    12    31  1
   33    18    32  1

@<TRIPOS>MOLECULE
MOL
   32   33    0    0    0
SMALL
USER_CHARGES


@<TRIPOS>ATOM
   1   C1       16.5714    3.5761   22.1309  C.2 1 <0> -0.1356
   2   C2       16.3946    3.2261   23.4033  C.2 1 <0> -0.0410
   3   C3       15.3772    4.1013   21.4189  C.2 1 <0>  0.4856
   4   C4       14.0554    3.8423   23.3373  C.2 1 <0>  0.8408
   5   C5       14.7754    1.4541   25.5798  C.3 1 <0>  0.0000
   6   C6       15.5072    1.1058   26.8554  C.3 1 <0>  0.2800
   7   C7       16.7283    2.0138   26.8111  C.3 1 <0>  0.2800
   8   C8       15.0806    2.9344   25.4194  C.3 1 <0>  0.5801
   9   C9       17.9106    1.3823   26.0876  C.3 1 <0>  0.2800
  10   N1       14.2181    4.2120   22.0131  N.2 1 <0> -0.6611
  11   N2       15.1729    3.3375   24.0466 N.am 1 <0> -0.4690
  12   N3       15.5174    4.4746   20.1025 N.pl3 1 <0> -0.8501
  13   O1       18.7676   -2.3524   26.1510  O.3 1 <0> -1.0332
  14   O2       20.3972   -0.3812   26.2318  O.3 1 <0> -1.0332
  15   O3       12.9551    3.9529   23.8811  O.2 1 <0> -0.5698
  16   O4       18.9314   -0.7527   24.1606  O.2 1 <0> -1.0332
  17   O5       16.3325    3.1862   26.0733  O.3 1 <0> -0.5601
  18   O6       14.6963    1.4375   27.9804  O.3 1 <0> -0.6802
  19   O7       17.9091   -0.0135   26.3390  O.3 1 <0> -0.5513
  20   P1       19.0969   -0.9440   25.6653  P.3 1 <0>  1.3711
  21   H1       17.5220    3.4925   21.6215    H 1 <0>  0.1500
  22   H2       17.2130    2.8340   23.9968    H 1 <0>  0.1500
  23   H3       15.0821    0.8384   24.7268    H 1 <0>  0.0000
  24   H4       13.6964    1.3004   25.7163    H 1 <0>  0.0000
  25   H5       15.7598    0.0555   26.8947    H 1 <0>  0.0000
  26   H6       17.0385    2.3219   27.8037    H 1 <0>  0.0000
  27   H7       14.2983    3.5572   25.8876    H 1 <0>  0.0000
  28   H8       18.8490    1.8078   26.4511    H 1 <0>  0.0000
  29   H9       17.8303    1.5497   25.0110    H 1 <0>  0.0000
  30  H10       16.4106    4.3774   19.6832    H 1 <0>  0.3999
  31  H11       14.7195    4.8246   19.6297    H 1 <0>  0.3999
  32  H12       15.0904    1.0752   28.7773    H 1 <0>  0.3999
@<TRIPOS>BOND
    1     1     2  1
    2     1     3  1
    3     2    11  1
    4     3    10  1
    5     3    12  1
    6     4    10  1
    7     4    11  1
    8     4    15  1
    9     5     6  1
   10     5     8  1
   11     6     7  1
   12     6    18  1
   13     7     9  1
   14     7    17  1
   15     8    11  1
   16     8    17  1
   17     9    19  1
   18    13    20  1
   19    14    20  1
   20    16    20  1
   21    19    20  1
   22     1    21  1
   23     2    22  1
   24     5    23  1
   25     5    24  1
   26     6    25  1
   27     7    26  1
   28     8    27  1
   29     9    28  1
   30     9    29  1
   31    12    30  1
   32    12    31  1
   33    18    32  1

@<TRIPOS>MOLECULE
MOL
   32   33    0    0    0
SMALL
USER_CHARGES


@<TRIPOS>ATOM
   1   C1       16.5248    3.5111   22.1115  C.2 1 <0> -0.1356
   2   C2       16.3600    3.1769   23.3898  C.2 1 <0> -0.0410
   3   C3       15.3212    4.0167   21.4012  C.2 1 <0>  0.4856
   4   C4       14.0154    3.7729   23.3324  C.2 1 <0>  0.8408
   5   C5       14.7713    1.4213   25.6018  C.3 1 <0>  0.0000
   6   C6       15.5152    1.0964   26.8766  C.3 1 <0>  0.2800
   7   C7       16.7283    2.0138   26.8111  C.3 1 <0>  0.2800
   8   C8       15.0630    2.9018   25.4191  C.3 1 <0>  0.5801
   9   C9       17.9106    1.3823   26.0876  C.3 1 <0>  0.2800
  10   N1       14.1654    4.1259   22.0023  N.2 1 <0> -0.6611
  11   N2       15.1421    3.2870   24.0404 N.am 1 <0> -0.4690
  12   N3       15.4488    4.3732   20.0788 N.pl3 1 <0> -0.8501
  13   O1       18.7676   -2.3524   26.1510  O.3 1 <0> -1.0332
  14   O2       20.3972   -0.3812   26.2318  O.3 1 <0> -1.0332
  15   O3       12.9181    3.8818   23.8827  O.2 1 <0> -0.5698
  16   O4       18.9314   -0.7527   24.1606  O.2 1 <0> -1.0332
  17   O5       16.3174    3.1728   26.0604  O.3 1 <0> -0.5601
  18   O6       14.7096    1.4367   28.0028  O.3 1 <0> -0.6802
  19   O7       17.9091   -0.0135   26.3390  O.3 1 <0> -0.5513
  20   P1       19.0969   -0.9440   25.6653  P.3 1 <0>  1.3711
  21   H1       17.4724    3.4284   21.5963    H 1 <0>  0.1500
  22   H2       17.1860    2.7997   23.9825    H 1 <0>  0.1500
  23   H3       15.0770    0.7967   24.7549    H 1 <0>  0.0000
  24   H4       13.6947    1.2607   25.7482    H 1 <0>  0.0000
  25   H5       15.7768    0.0489   26.9282    H 1 <0>  0.0000
  26   H6       17.0430    2.3379   27.7971    H 1 <0>  0.0000
  27   H7       14.2789    3.5244   25.8846    H 1 <0>  0.0000
  28   H8       18.8490    1.8078   26.4511    H 1 <0>  0.0000
  29   H9       17.8303    1.5497   25.0110    H 1 <0>  0.0000
  30  H10       16.3397    4.2777   19.6544    H 1 <0>  0.3999
  31  H11       14.6446    4.7102   19.6072    H 1 <0>  0.3999
  32  H12       15.1125    1.0885   28.8017    H 1 <0>  0.3999
@<TRIPOS>BOND
    1     1     2  1
    2     1     3  1
    3     2    11  1
    4     3    10  1
    5     3    12  1
    6     4    10  1
    7     4    11  1
    8     4    15  1
    9     5     6  1
   10     5     8  1
   11     6     7  1
   12     6    18  1
   13     7     9  1
   14     7    17  1
   15     8    11  1
   16     8    17  1
   17     9    19  1
   18    13    20  1
   19    14    20  1
   20    16    20  1
   21    19    20  1
   22     1    21  1
   23     2    22  1
   24     5    23  1
   25     5    24  1
   26     6    25  1
   27     7    26  1
   28     8    27  1
   29     9    28  1
   30     9    29  1
   31    12    30  1
   32    12    31  1
   33    18    32  1

@<TRIPOS>MOLECULE
MOL
   32   33    0    0    0
SMALL
USER_CHARGES


@<TRIPOS>ATOM
   1   C1       16.4786    3.4454   22.0933  C.2 1 <0> -0.1356
   2   C2       16.3258    3.1273   23.3771  C.2 1 <0> -0.0410
   3   C3       15.2657    3.9314   21.3850  C.2 1 <0>  0.4856
   4   C4       13.9759    3.7030   23.3289  C.2 1 <0>  0.8408
   5   C5       14.7677    1.3888   25.6242  C.3 1 <0>  0.0000
   6   C6       15.5234    1.0874   26.8978  C.3 1 <0>  0.2800
   7   C7       16.7283    2.0138   26.8111  C.3 1 <0>  0.2800
   8   C8       15.0457    2.8691   25.4194  C.3 1 <0>  0.5801
   9   C9       17.9106    1.3823   26.0876  C.3 1 <0>  0.2800
  10   N1       14.1135    4.0392   21.9930  N.2 1 <0> -0.6611
  11   N2       15.1117    3.2361   24.0351 N.am 1 <0> -0.4690
  12   N3       15.3809    4.2710   20.0570 N.pl3 1 <0> -0.8501
  13   O1       18.7676   -2.3524   26.1510  O.3 1 <0> -1.0332
  14   O2       20.3972   -0.3812   26.2318  O.3 1 <0> -1.0332
  15   O3       12.8818    3.8104   23.8856  O.2 1 <0> -0.5698
  16   O4       18.9314   -0.7527   24.1606  O.2 1 <0> -1.0332
  17   O5       16.3024    3.1591   26.0479  O.3 1 <0> -0.5601
  18   O6       14.7231    1.4363   28.0252  O.3 1 <0> -0.6802
  19   O7       17.9091   -0.0135   26.3390  O.3 1 <0> -0.5513
  20   P1       19.0969   -0.9440   25.6653  P.3 1 <0>  1.3711
  21   H1       17.4231    3.3636   21.5724    H 1 <0>  0.1500
  22   H2       17.1591    2.7649   23.9689    H 1 <0>  0.1500
  23   H3       15.0725    0.7553   24.7837    H 1 <0>  0.0000
  24   H4       13.6935    1.2213   25.7806    H 1 <0>  0.0000
  25   H5       15.7941    0.0429   26.9617    H 1 <0>  0.0000
  26   H6       17.0474    2.3538   27.7903    H 1 <0>  0.0000
  27   H7       14.2598    3.4915   25.8821    H 1 <0>  0.0000
  28   H8       18.8490    1.8078   26.4511    H 1 <0>  0.0000
  29   H9       17.8303    1.5497   25.0110    H 1 <0>  0.0000
  30  H10       16.2695    4.1771   19.6275    H 1 <0>  0.3999
  31  H11       14.5705    4.5949   19.5868    H 1 <0>  0.3999
  32  H12       15.1346    1.1023   28.8258    H 1 <0>  0.3999
@<TRIPOS>BOND
    1     1     2  1
    2     1     3  1
    3     2    11  1
    4     3    10  1
    5     3    12  1
    6     4    10  1
    7     4    11  1
    8     4    15  1
    9     5     6  1
   10     5     8  1
   11     6     7  1
   12     6    18  1
   13     7     9  1
   14     7    17  1
   15     8    11  1
   16     8    17  1
   17     9    19  1
   18    13    20  1
   19    14    20  1
   20    16    20  1
   21    19    20  1
   22     1    21  1
   23     2    22  1
   24     5    23  1
   25     5    24  1
   26     6    25  1
   27     7    26  1
   28     8    27  1
   29     9    28  1
   30     9    29  1
   31    12    30  1
   32    12    31  1
   33    18    32  1

@<TRIPOS>MOLECULE
MOL
   32   33    0    0    0
SMALL
USER_CHARGES


@<TRIPOS>ATOM
   1   C1       16.4328    3.3791   22.0763  C.2 1 <0> -0.1356
   2   C2       16.2918    3.0772   23.3654  C.2 1 <0> -0.0410
   3   C3       15.2109    3.8455   21.3704  C.2 1 <0>  0.4856
   4   C4       13.9370    3.6329   23.3265  C.2 1 <0>  0.8408
   5   C5       14.7645    1.3567   25.6471  C.3 1 <0>  0.0000
   6   C6       15.5318    1.0788   26.9191  C.3 1 <0>  0.2800
   7   C7       16.7283    2.0138   26.8111  C.3 1 <0>  0.2800
   8   C8       15.0287    2.8362   25.4203  C.3 1 <0>  0.5801
   9   C9       17.9106    1.3823   26.0876  C.3 1 <0>  0.2800
  10   N1       14.0621    3.9520   21.9852  N.2 1 <0> -0.6611
  11   N2       15.0817    3.1850   24.0307 N.am 1 <0> -0.4690
  12   N3       15.3137    4.1679   20.0372 N.pl3 1 <0> -0.8501
  13   O1       18.7676   -2.3524   26.1510  O.3 1 <0> -1.0332
  14   O2       20.3972   -0.3812   26.2318  O.3 1 <0> -1.0332
  15   O3       12.8460    3.7388   23.8897  O.2 1 <0> -0.5698
  16   O4       18.9314   -0.7527   24.1606  O.2 1 <0> -1.0332
  17   O5       16.2874    3.1451   26.0356  O.3 1 <0> -0.5601
  18   O6       14.7368    1.4363   28.0475  O.3 1 <0> -0.6802
  19   O7       17.9091   -0.0135   26.3390  O.3 1 <0> -0.5513
  20   P1       19.0969   -0.9440   25.6653  P.3 1 <0>  1.3711
  21   H1       17.3742    3.2980   21.5497    H 1 <0>  0.1500
  22   H2       17.1324    2.7298   23.9559    H 1 <0>  0.1500
  23   H3       15.0685    0.7143   24.8130    H 1 <0>  0.0000
  24   H4       13.6929    1.1824   25.8136    H 1 <0>  0.0000
  25   H5       15.8116    0.0375   26.9951    H 1 <0>  0.0000
  26   H6       17.0516    2.3697   27.7833    H 1 <0>  0.0000
  27   H7       14.2410    3.4583   25.8803    H 1 <0>  0.0000
  28   H8       18.8490    1.8078   26.4511    H 1 <0>  0.0000
  29   H9       17.8303    1.5497   25.0110    H 1 <0>  0.0000
  30  H10       16.1999    4.0755   19.6025    H 1 <0>  0.3999
  31  H11       14.4973    4.4787   19.5685    H 1 <0>  0.3999
  32  H12       15.1567    1.1167   28.8495    H 1 <0>  0.3999
@<TRIPOS>BOND
    1     1     2  1
    2     1     3  1
    3     2    11  1
    4     3    10  1
    5     3    12  1
    6     4    10  1
    7     4    11  1
    8     4    15  1
    9     5     6  1
   10     5     8  1
   11     6     7  1
   12     6    18  1
   13     7     9  1
   14     7    17  1
   15     8    11  1
   16     8    17  1
   17     9    19  1
   18    13    20  1
   19    14    20  1
   20    16    20  1
   21    19    20  1
   22     1    21  1
   23     2    22  1
   24     5    23  1
   25     5    24  1
   26     6    25  1
   27     7    26  1
   28     8    27  1
   29     9    28  1
   30     9    29  1
   31    12    30  1
   32    12    31  1
   33    18    32  1

@<TRIPOS>MOLECULE
MOL
   32   33    0    0    0
SMALL
USER_CHARGES


@<TRIPOS>ATOM
   1   C1       16.3874    3.3122   22.0606  C.2 1 <0> -0.1356
   2   C2       16.2583    3.0267   23.3546  C.2 1 <0> -0.0410
   3   C3       15.1566    3.7589   21.3574  C.2 1 <0>  0.4856
   4   C4       13.8986    3.5624   23.3254  C.2 1 <0>  0.8408
   5   C5       14.7618    1.3247   25.6704  C.3 1 <0>  0.0000
   6   C6       15.5404    1.0705   26.9404  C.3 1 <0>  0.2800
   7   C7       16.7283    2.0138   26.8111  C.3 1 <0>  0.2800
   8   C8       15.0120    2.8032   25.4217  C.3 1 <0>  0.5801
   9   C9       17.9106    1.3823   26.0876  C.3 1 <0>  0.2800
  10   N1       14.0115    3.8643   21.9790  N.2 1 <0> -0.6611
  11   N2       15.0521    3.1335   24.0272 N.am 1 <0> -0.4690
  12   N3       15.2472    4.0640   20.0192 N.pl3 1 <0> -0.8501
  13   O1       18.7676   -2.3524   26.1510  O.3 1 <0> -1.0332
  14   O2       20.3972   -0.3812   26.2318  O.3 1 <0> -1.0332
  15   O3       12.8109    3.6669   23.8951  O.2 1 <0> -0.5698
  16   O4       18.9314   -0.7527   24.1606  O.2 1 <0> -1.0332
  17   O5       16.2724    3.1308   26.0236  O.3 1 <0> -0.5601
  18   O6       14.7506    1.4368   28.0697  O.3 1 <0> -0.6802
  19   O7       17.9091   -0.0135   26.3390  O.3 1 <0> -0.5513
  20   P1       19.0969   -0.9440   25.6653  P.3 1 <0>  1.3711
  21   H1       17.3257    3.2317   21.5282    H 1 <0>  0.1500
  22   H2       17.1059    2.6943   23.9436    H 1 <0>  0.1500
  23   H3       15.0651    0.6736   24.8429    H 1 <0>  0.0000
  24   H4       13.6929    1.1440   25.8471    H 1 <0>  0.0000
  25   H5       15.8295    0.0326   27.0285    H 1 <0>  0.0000
  26   H6       17.0556    2.3855   27.7760    H 1 <0>  0.0000
  27   H7       14.2224    3.4250   25.8790    H 1 <0>  0.0000
  28   H8       18.8490    1.8078   26.4511    H 1 <0>  0.0000
  29   H9       17.8303    1.5497   25.0110    H 1 <0>  0.0000
  30  H10       16.1310    3.9730   19.5793    H 1 <0>  0.3999
  31  H11       14.4248    4.3616   19.5523    H 1 <0>  0.3999
  32  H12       15.1789    1.1315   28.8728    H 1 <0>  0.3999
@<TRIPOS>BOND
    1     1     2  1
    2     1     3  1
    3     2    11  1
    4     3    10  1
    5     3    12  1
    6     4    10  1
    7     4    11  1
    8     4    15  1
    9     5     6  1
   10     5     8  1
   11     6     7  1
   12     6    18  1
   13     7     9  1
   14     7    17  1
   15     8    11  1
   16     8    17  1
   17     9    19  1
   18    13    20  1
   19    14    20  1
   20    16    20  1
   21    19    20  1
   22     1    21  1
   23     2    22  1
   24     5    23  1
   25     5    24  1
   26     6    25  1
   27     7    26  1
   28     8    27  1
   29     9    28  1
   30     9    29  1
   31    12    30  1
   32    12    31  1
   33    18    32  1

@<TRIPOS>MOLECULE
MOL
   32   33    0    0    0
SMALL
USER_CHARGES


@<TRIPOS>ATOM
   1   C1       16.3425    3.2448   22.0461  C.2 1 <0> -0.1356
   2   C2       16.2250    2.9757   23.3448  C.2 1 <0> -0.0410
   3   C3       15.1030    3.6717   21.3459  C.2 1 <0>  0.4856
   4   C4       13.8609    3.4915   23.3255  C.2 1 <0>  0.8408
   5   C5       14.7595    1.2931   25.6942  C.3 1 <0>  0.0000
   6   C6       15.5493    1.0626   26.9618  C.3 1 <0>  0.2800
   7   C7       16.7283    2.0138   26.8111  C.3 1 <0>  0.2800
   8   C8       14.9955    2.7701   25.4237  C.3 1 <0>  0.5801
   9   C9       17.9106    1.3823   26.0876  C.3 1 <0>  0.2800
  10   N1       13.9615    3.7760   21.9744  N.2 1 <0> -0.6611
  11   N2       15.0228    3.0817   24.0246 N.am 1 <0> -0.4690
  12   N3       15.1814    3.9593   20.0030 N.pl3 1 <0> -0.8501
  13   O1       18.7676   -2.3524   26.1510  O.3 1 <0> -1.0332
  14   O2       20.3972   -0.3812   26.2318  O.3 1 <0> -1.0332
  15   O3       12.7764    3.5948   23.9016  O.2 1 <0> -0.5698
  16   O4       18.9314   -0.7527   24.1606  O.2 1 <0> -1.0332
  17   O5       16.2575    3.1162   26.0119  O.3 1 <0> -0.5601
  18   O6       14.7646    1.4376   28.0918  O.3 1 <0> -0.6802
  19   O7       17.9091   -0.0135   26.3390  O.3 1 <0> -0.5513
  20   P1       19.0969   -0.9440   25.6653  P.3 1 <0>  1.3711
  21   H1       17.2776    3.1648   21.5081    H 1 <0>  0.1500
  22   H2       17.0796    2.6584   23.9320    H 1 <0>  0.1500
  23   H3       15.0623    0.6334   24.8734    H 1 <0>  0.0000
  24   H4       13.6934    1.1060   25.8811    H 1 <0>  0.0000
  25   H5       15.8476    0.0284   27.0618    H 1 <0>  0.0000
  26   H6       17.0594    2.4013   27.7685    H 1 <0>  0.0000
  27   H7       14.2041    3.3915   25.8783    H 1 <0>  0.0000
  28   H8       18.8490    1.8078   26.4511    H 1 <0>  0.0000
  29   H9       17.8303    1.5497   25.0110    H 1 <0>  0.0000
  30  H10       16.0628    3.8696   19.5580    H 1 <0>  0.3999
  31  H11       14.3533    4.2438   19.5382    H 1 <0>  0.3999
  32  H12       15.2012    1.1469   28.8958    H 1 <0>  0.3999
@<TRIPOS>BOND
    1     1     2  1
    2     1     3  1
    3     2    11  1
    4     3    10  1
    5     3    12  1
    6     4    10  1
    7     4    11  1
    8     4    15  1
    9     5     6  1
   10     5     8  1
   11     6     7  1
   12     6    18  1
   13     7     9  1
   14     7    17  1
   15     8    11  1
   16     8    17  1
   17     9    19  1
   18    13    20  1
   19    14    20  1
   20    16    20  1
   21    19    20  1
   22     1    21  1
   23     2    22  1
   24     5    23  1
   25     5    24  1
   26     6    25  1
   27     7    26  1
   28     8    27  1
   29     9    28  1
   30     9    29  1
   31    12    30  1
   32    12    31  1
   33    18    32  1

@<TRIPOS>MOLECULE
MOL
   32   33    0    0    0
SMALL
USER_CHARGES


@<TRIPOS>ATOM
   1   C1       16.2980    3.1768   22.0328  C.2 1 <0> -0.1356
   2   C2       16.1922    2.9244   23.3359  C.2 1 <0> -0.0410
   3   C3       15.0500    3.5839   21.3360  C.2 1 <0>  0.4856
   4   C4       13.8237    3.4204   23.3269  C.2 1 <0>  0.8408
   5   C5       14.7576    1.2618   25.7184  C.3 1 <0>  0.0000
   6   C6       15.5584    1.0550   26.9833  C.3 1 <0>  0.2800
   7   C7       16.7283    2.0138   26.8111  C.3 1 <0>  0.2800
   8   C8       14.9793    2.7369   25.4263  C.3 1 <0>  0.5801
   9   C9       17.9106    1.3823   26.0876  C.3 1 <0>  0.2800
  10   N1       13.9123    3.6873   21.9713  N.2 1 <0> -0.6611
  11   N2       14.9940    3.0297   24.0229 N.am 1 <0> -0.4690
  12   N3       15.1164    3.8539   19.9888 N.pl3 1 <0> -0.8501
  13   O1       18.7676   -2.3524   26.1510  O.3 1 <0> -1.0332
  14   O2       20.3972   -0.3812   26.2318  O.3 1 <0> -1.0332
  15   O3       12.7426    3.5226   23.9094  O.2 1 <0> -0.5698
  16   O4       18.9314   -0.7527   24.1606  O.2 1 <0> -1.0332
  17   O5       16.2426    3.1013   26.0005  O.3 1 <0> -0.5601
  18   O6       14.7787    1.4389   28.1137  O.3 1 <0> -0.6802
  19   O7       17.9091   -0.0135   26.3390  O.3 1 <0> -0.5513
  20   P1       19.0969   -0.9440   25.6653  P.3 1 <0>  1.3711
  21   H1       17.2299    3.0972   21.4891    H 1 <0>  0.1500
  22   H2       17.0535    2.6221   23.9211    H 1 <0>  0.1500
  23   H3       15.0600    0.5935   24.9044    H 1 <0>  0.0000
  24   H4       13.6945    1.0685   25.9156    H 1 <0>  0.0000
  25   H5       15.8660    0.0248   27.0950    H 1 <0>  0.0000
  26   H6       17.0630    2.4169   27.7607    H 1 <0>  0.0000
  27   H7       14.1861    3.3579   25.8782    H 1 <0>  0.0000
  28   H8       18.8490    1.8078   26.4511    H 1 <0>  0.0000
  29   H9       17.8303    1.5497   25.0110    H 1 <0>  0.0000
  30  H10       15.9953    3.7655   19.5387    H 1 <0>  0.3999
  31  H11       14.2826    4.1252   19.5262    H 1 <0>  0.3999
  32  H12       15.2235    1.1627   28.9184    H 1 <0>  0.3999
@<TRIPOS>BOND
    1     1     2  1
    2     1     3  1
    3     2    11  1
    4     3    10  1
    5     3    12  1
    6     4    10  1
    7     4    11  1
    8     4    15  1
    9     5     6  1
   10     5     8  1
   11     6     7  1
   12     6    18  1
   13     7     9  1
   14     7    17  1
   15     8    11  1
   16     8    17  1
   17     9    19  1
   18    13    20  1
   19    14    20  1
   20    16    20  1
   21    19    20  1
   22     1    21  1
   23     2    22  1
   24     5    23  1
   25     5    24  1
   26     6    25  1
   27     7    26  1
   28     8    27  1
   29     9    28  1
   30     9    29  1
   31    12    30  1
   32    12    31  1
   33    18    32  1

@<TRIPOS>MOLECULE
MOL
   32   33    0    0    0
SMALL
USER_CHARGES


@<TRIPOS>ATOM
   1   C1       16.2541    3.1082   22.0208  C.2 1 <0> -0.1356
   2   C2       16.1596    2.8727   23.3279  C.2 1 <0> -0.0410
   3   C3       14.9977    3.4955   21.3276  C.2 1 <0>  0.4856
   4   C4       13.7871    3.3490   23.3294  C.2 1 <0>  0.8408
   5   C5       14.7561    1.2309   25.7431  C.3 1 <0>  0.0000
   6   C6       15.5677    1.0479   27.0047  C.3 1 <0>  0.2800
   7   C7       16.7283    2.0138   26.8111  C.3 1 <0>  0.2800
   8   C8       14.9635    2.7036   25.4295  C.3 1 <0>  0.5801
   9   C9       17.9106    1.3823   26.0876  C.3 1 <0>  0.2800
  10   N1       13.8638    3.5982   21.9698  N.2 1 <0> -0.6611
  11   N2       14.9656    2.9775   24.0222 N.am 1 <0> -0.4690
  12   N3       15.0522    3.7478   19.9765 N.pl3 1 <0> -0.8501
  13   O1       18.7676   -2.3524   26.1510  O.3 1 <0> -1.0332
  14   O2       20.3972   -0.3812   26.2318  O.3 1 <0> -1.0332
  15   O3       12.7094    3.4501   23.9184  O.2 1 <0> -0.5698
  16   O4       18.9314   -0.7527   24.1606  O.2 1 <0> -1.0332
  17   O5       16.2277    3.0862   25.9895  O.3 1 <0> -0.5601
  18   O6       14.7929    1.4406   28.1355  O.3 1 <0> -0.6802
  19   O7       17.9091   -0.0135   26.3390  O.3 1 <0> -0.5513
  20   P1       19.0969   -0.9440   25.6653  P.3 1 <0>  1.3711
  21   H1       17.1826    3.0289   21.4714    H 1 <0>  0.1500
  22   H2       17.0277    2.5855   23.9108    H 1 <0>  0.1500
  23   H3       15.0582    0.5541   24.9360    H 1 <0>  0.0000
  24   H4       13.6961    1.0314   25.9506    H 1 <0>  0.0000
  25   H5       15.8847    0.0218   27.1282    H 1 <0>  0.0000
  26   H6       17.0664    2.4325   27.7527    H 1 <0>  0.0000
  27   H7       14.1683    3.3241   25.8787    H 1 <0>  0.0000
  28   H8       18.8490    1.8078   26.4511    H 1 <0>  0.0000
  29   H9       17.8303    1.5497   25.0110    H 1 <0>  0.0000
  30  H10       15.9285    3.6605   19.5212    H 1 <0>  0.3999
  31  H11       14.2129    4.0059   19.5164    H 1 <0>  0.3999
  32  H12       15.2458    1.1790   28.9406    H 1 <0>  0.3999
@<TRIPOS>BOND
    1     1     2  1
    2     1     3  1
    3     2    11  1
    4     3    10  1
    5     3    12  1
    6     4    10  1
    7     4    11  1
    8     4    15  1
    9     5     6  1
   10     5     8  1
   11     6     7  1
   12     6    18  1
   13     7     9  1
   14     7    17  1
   15     8    11  1
   16     8    17  1
   17     9    19  1
   18    13    20  1
   19    14    20  1
   20    16    20  1
   21    19    20  1
   22     1    21  1
   23     2    22  1
   24     5    23  1
   25     5    24  1
   26     6    25  1
   27     7    26  1
   28     8    27  1
   29     9    28  1
   30     9    29  1
   31    12    30  1
   32    12    31  1
   33    18    32  1

@<TRIPOS>MOLECULE
MOL
   32   33    0    0    0
SMALL
USER_CHARGES


@<TRIPOS>ATOM
   1   C1       16.2106    3.0391   22.0100  C.2 1 <0> -0.1356
   2   C2       16.1275    2.8206   23.3208  C.2 1 <0> -0.0410
   3   C3       14.9461    3.4066   21.3209  C.2 1 <0>  0.4856
   4   C4       13.7512    3.2773   23.3332  C.2 1 <0>  0.8408
   5   C5       14.7551    1.2002   25.7682  C.3 1 <0>  0.0000
   6   C6       15.5772    1.0410   27.0262  C.3 1 <0>  0.2800
   7   C7       16.7283    2.0138   26.8111  C.3 1 <0>  0.2800
   8   C8       14.9479    2.6702   25.4332  C.3 1 <0>  0.5801
   9   C9       17.9106    1.3823   26.0876  C.3 1 <0>  0.2800
  10   N1       13.8160    3.5087   21.9699  N.2 1 <0> -0.6611
  11   N2       14.9377    2.9249   24.0223 N.am 1 <0> -0.4690
  12   N3       14.9887    3.6410   19.9661 N.pl3 1 <0> -0.8501
  13   O1       18.7676   -2.3524   26.1510  O.3 1 <0> -1.0332
  14   O2       20.3972   -0.3812   26.2318  O.3 1 <0> -1.0332
  15   O3       12.6769    3.3776   23.9286  O.2 1 <0> -0.5698
  16   O4       18.9314   -0.7527   24.1606  O.2 1 <0> -1.0332
  17   O5       16.2129    3.0707   25.9787  O.3 1 <0> -0.5601
  18   O6       14.8073    1.4427   28.1573  O.3 1 <0> -0.6802
  19   O7       17.9091   -0.0135   26.3390  O.3 1 <0> -0.5513
  20   P1       19.0969   -0.9440   25.6653  P.3 1 <0>  1.3711
  21   H1       17.1358    2.9600   21.4550    H 1 <0>  0.1500
  22   H2       17.0021    2.5485   23.9013    H 1 <0>  0.1500
  23   H3       15.0570    0.5150   24.9681    H 1 <0>  0.0000
  24   H4       13.6983    0.9949   25.9861    H 1 <0>  0.0000
  25   H5       15.9036    0.0194   27.1612    H 1 <0>  0.0000
  26   H6       17.0697    2.4481   27.7445    H 1 <0>  0.0000
  27   H7       14.1509    3.2902   25.8797    H 1 <0>  0.0000
  28   H8       18.8490    1.8078   26.4511    H 1 <0>  0.0000
  29   H9       17.8303    1.5497   25.0110    H 1 <0>  0.0000
  30  H10       15.8625    3.5547   19.5056    H 1 <0>  0.3999
  31  H11       14.1440    3.8859   19.5086    H 1 <0>  0.3999
  32  H12       15.2681    1.1958   28.9625    H 1 <0>  0.3999
@<TRIPOS>BOND
    1     1     2  1
    2     1     3  1
    3     2    11  1
    4     3    10  1
    5     3    12  1
    6     4    10  1
    7     4    11  1
    8     4    15  1
    9     5     6  1
   10     5     8  1
   11     6     7  1
   12     6    18  1
   13     7     9  1
   14     7    17  1
   15     8    11  1
   16     8    17  1
   17     9    19  1
   18    13    20  1
   19    14    20  1
   20    16    20  1
   21    19    20  1
   22     1    21  1
   23     2    22  1
   24     5    23  1
   25     5    24  1
   26     6    25  1
   27     7    26  1
   28     8    27  1
   29     9    28  1
   30     9    29  1
   31    12    30  1
   32    12    31  1
   33    18    32  1

@<TRIPOS>MOLECULE
MOL
   32   33    0    0    0
SMALL
USER_CHARGES


@<TRIPOS>ATOM
   1   C1       16.1676    2.9695   22.0005  C.2 1 <0> -0.1356
   2   C2       16.0958    2.7682   23.3147  C.2 1 <0> -0.0410
   3   C3       14.8952    3.3172   21.3157  C.2 1 <0>  0.4856
   4   C4       13.7158    3.2054   23.3383  C.2 1 <0>  0.8408
   5   C5       14.7545    1.1699   25.7937  C.3 1 <0>  0.0000
   6   C6       15.5869    1.0346   27.0478  C.3 1 <0>  0.2800
   7   C7       16.7283    2.0138   26.8111  C.3 1 <0>  0.2800
   8   C8       14.9327    2.6367   25.4374  C.3 1 <0>  0.5801
   9   C9       17.9106    1.3823   26.0876  C.3 1 <0>  0.2800
  10   N1       13.7689    3.4188   21.9715  N.2 1 <0> -0.6611
  11   N2       14.9102    2.8722   24.0234 N.am 1 <0> -0.4690
  12   N3       14.9261    3.5335   19.9576 N.pl3 1 <0> -0.8501
  13   O1       18.7676   -2.3524   26.1510  O.3 1 <0> -1.0332
  14   O2       20.3972   -0.3812   26.2318  O.3 1 <0> -1.0332
  15   O3       12.6451    3.3049   23.9401  O.2 1 <0> -0.5698
  16   O4       18.9314   -0.7527   24.1606  O.2 1 <0> -1.0332
  17   O5       16.1981    3.0551   25.9683  O.3 1 <0> -0.5601
  18   O6       14.8219    1.4452   28.1788  O.3 1 <0> -0.6802
  19   O7       17.9091   -0.0135   26.3390  O.3 1 <0> -0.5513
  20   P1       19.0969   -0.9440   25.6653  P.3 1 <0>  1.3711
  21   H1       17.0894    2.8905   21.4399    H 1 <0>  0.1500
  22   H2       16.9767    2.5112   23.8924    H 1 <0>  0.1500
  23   H3       15.0564    0.4764   25.0008    H 1 <0>  0.0000
  24   H4       13.7011    0.9588   26.0221    H 1 <0>  0.0000
  25   H5       15.9228    0.0177   27.1941    H 1 <0>  0.0000
  26   H6       17.0727    2.4635   27.7360    H 1 <0>  0.0000
  27   H7       14.1337    3.2562   25.8814    H 1 <0>  0.0000
  28   H8       18.8490    1.8078   26.4511    H 1 <0>  0.0000
  29   H9       17.8303    1.5497   25.0110    H 1 <0>  0.0000
  30  H10       15.7972    3.4482   19.4920    H 1 <0>  0.3999
  31  H11       14.0761    3.7652   19.5030    H 1 <0>  0.3999
  32  H12       15.2905    1.2131   28.9839    H 1 <0>  0.3999
@<TRIPOS>BOND
    1     1     2  1
    2     1     3  1
    3     2    11  1
    4     3    10  1
    5     3    12  1
    6     4    10  1
    7     4    11  1
    8     4    15  1
    9     5     6  1
   10     5     8  1
   11     6     7  1
   12     6    18  1
   13     7     9  1
   14     7    17  1
   15     8    11  1
   16     8    17  1
   17     9    19  1
   18    13    20  1
   19    14    20  1
   20    16    20  1
   21    19    20  1
   22     1    21  1
   23     2    22  1
   24     5    23  1
   25     5    24  1
   26     6    25  1
   27     7    26  1
   28     8    27  1
   29     9    28  1
   30     9    29  1
   31    12    30  1
   32    12    31  1
   33    18    32  1

@<TRIPOS>MOLECULE
MOL
   32   33    0    0    0
SMALL
USER_CHARGES


@<TRIPOS>ATOM
   1   C1       16.1251    2.8995   21.9922  C.2 1 <0> -0.1356
   2   C2       16.0644    2.7154   23.3095  C.2 1 <0> -0.0410
   3   C3       14.8450    3.2273   21.3121  C.2 1 <0>  0.4856
   4   C4       13.6812    3.1333   23.3446  C.2 1 <0>  0.8408
   5   C5       14.7544    1.1399   25.8196  C.3 1 <0>  0.0000
   6   C6       15.5969    1.0285   27.0693  C.3 1 <0>  0.2800
   7   C7       16.7283    2.0138   26.8111  C.3 1 <0>  0.2800
   8   C8       14.9177    2.6032   25.4423  C.3 1 <0>  0.5801
   9   C9       17.9106    1.3823   26.0876  C.3 1 <0>  0.2800
  10   N1       13.7226    3.3285   21.9746  N.2 1 <0> -0.6611
  11   N2       14.8831    2.8193   24.0254 N.am 1 <0> -0.4690
  12   N3       14.8644    3.4254   19.9510 N.pl3 1 <0> -0.8501
  13   O1       18.7676   -2.3524   26.1510  O.3 1 <0> -1.0332
  14   O2       20.3972   -0.3812   26.2318  O.3 1 <0> -1.0332
  15   O3       12.6140    3.2321   23.9528  O.2 1 <0> -0.5698
  16   O4       18.9314   -0.7527   24.1606  O.2 1 <0> -1.0332
  17   O5       16.1834    3.0391   25.9582  O.3 1 <0> -0.5601
  18   O6       14.8366    1.4482   28.2002  O.3 1 <0> -0.6802
  19   O7       17.9091   -0.0135   26.3390  O.3 1 <0> -0.5513
  20   P1       19.0969   -0.9440   25.6653  P.3 1 <0>  1.3711
  21   H1       17.0435    2.8205   21.4261    H 1 <0>  0.1500
  22   H2       16.9516    2.4735   23.8842    H 1 <0>  0.1500
  23   H3       15.0563    0.4382   25.0340    H 1 <0>  0.0000
  24   H4       13.7044    0.9233   26.0585    H 1 <0>  0.0000
  25   H5       15.9423    0.0165   27.2269    H 1 <0>  0.0000
  26   H6       17.0756    2.4788   27.7273    H 1 <0>  0.0000
  27   H7       14.1168    3.2220   25.8836    H 1 <0>  0.0000
  28   H8       18.8490    1.8078   26.4511    H 1 <0>  0.0000
  29   H9       17.8303    1.5497   25.0110    H 1 <0>  0.0000
  30  H10       15.7328    3.3410   19.4802    H 1 <0>  0.3999
  31  H11       14.0092    3.6439   19.4996    H 1 <0>  0.3999
  32  H12       15.3129    1.2308   29.0050    H 1 <0>  0.3999
@<TRIPOS>BOND
    1     1     2  1
    2     1     3  1
    3     2    11  1
    4     3    10  1
    5     3    12  1
    6     4    10  1
    7     4    11  1
    8     4    15  1
    9     5     6  1
   10     5     8  1
   11     6     7  1
   12     6    18  1
   13     7     9  1
   14     7    17  1
   15     8    11  1
   16     8    17  1
   17     9    19  1
   18    13    20  1
   19    14    20  1
   20    16    20  1
   21    19    20  1
   22     1    21  1
   23     2    22  1
   24     5    23  1
   25     5    24  1
   26     6    25  1
   27     7    26  1
   28     8    27  1
   29     9    28  1
   30     9    29  1
   31    12    30  1
   32    12    31  1
   33    18    32  1

@<TRIPOS>MOLECULE
MOL
   32   33    0    0    0
SMALL
USER_CHARGES


@<TRIPOS>ATOM
   1   C1       16.0832    2.8290   21.9852  C.2 1 <0> -0.1356
   2   C2       16.0335    2.6623   23.3053  C.2 1 <0> -0.0410
   3   C3       14.7955    3.1370   21.3101  C.2 1 <0>  0.4856
   4   C4       13.6471    3.0609   23.3520  C.2 1 <0>  0.8408
   5   C5       14.7546    1.1103   25.8460  C.3 1 <0>  0.0000
   6   C6       15.6070    1.0228   27.0908  C.3 1 <0>  0.2800
   7   C7       16.7283    2.0138   26.8111  C.3 1 <0>  0.2800
   8   C8       14.9031    2.5696   25.4477  C.3 1 <0>  0.5801
   9   C9       17.9106    1.3823   26.0876  C.3 1 <0>  0.2800
  10   N1       13.6771    3.2379   21.9793  N.2 1 <0> -0.6611
  11   N2       14.8565    2.7661   24.0283 N.am 1 <0> -0.4690
  12   N3       14.8034    3.3167   19.9463 N.pl3 1 <0> -0.8501
  13   O1       18.7676   -2.3524   26.1510  O.3 1 <0> -1.0332
  14   O2       20.3972   -0.3812   26.2318  O.3 1 <0> -1.0332
  15   O3       12.5835    3.1592   23.9666  O.2 1 <0> -0.5698
  16   O4       18.9314   -0.7527   24.1606  O.2 1 <0> -1.0332
  17   O5       16.1688    3.0229   25.9484  O.3 1 <0> -0.5601
  18   O6       14.8514    1.4515   28.2215  O.3 1 <0> -0.6802
  19   O7       17.9091   -0.0135   26.3390  O.3 1 <0> -0.5513
  20   P1       19.0969   -0.9440   25.6653  P.3 1 <0>  1.3711
  21   H1       16.9981    2.7499   21.4135    H 1 <0>  0.1500
  22   H2       16.9267    2.4356   23.8767    H 1 <0>  0.1500
  23   H3       15.0568    0.4005   25.0677    H 1 <0>  0.0000
  24   H4       13.7082    0.8883   26.0954    H 1 <0>  0.0000
  25   H5       15.9620    0.0159   27.2596    H 1 <0>  0.0000
  26   H6       17.0783    2.4941   27.7184    H 1 <0>  0.0000
  27   H7       14.1002    3.1877   25.8865    H 1 <0>  0.0000
  28   H8       18.8490    1.8078   26.4511    H 1 <0>  0.0000
  29   H9       17.8303    1.5497   25.0110    H 1 <0>  0.0000
  30  H10       15.6691    3.2331   19.4704    H 1 <0>  0.3999
  31  H11       13.9433    3.5220   19.4982    H 1 <0>  0.3999
  32  H12       15.3352    1.2490   29.0256    H 1 <0>  0.3999
@<TRIPOS>BOND
    1     1     2  1
    2     1     3  1
    3     2    11  1
    4     3    10  1
    5     3    12  1
    6     4    10  1
    7     4    11  1
    8     4    15  1
    9     5     6  1
   10     5     8  1
   11     6     7  1
   12     6    18  1
   13     7     9  1
   14     7    17  1
   15     8    11  1
   16     8    17  1
   17     9    19  1
   18    13    20  1
   19    14    20  1
   20    16    20  1
   21    19    20  1
   22     1    21  1
   23     2    22  1
   24     5    23  1
   25     5    24  1
   26     6    25  1
   27     7    26  1
   28     8    27  1
   29     9    28  1
   30     9    29  1
   31    12    30  1
   32    12    31  1
   33    18    32  1

@<TRIPOS>MOLECULE
MOL
   32   33    0    0    0
SMALL
USER_CHARGES


@<TRIPOS>ATOM
   1   C1       16.0418    2.7580   21.9795  C.2 1 <0> -0.1356
   2   C2       16.0029    2.6089   23.3020  C.2 1 <0> -0.0410
   3   C3       14.7467    3.0462   21.3096  C.2 1 <0>  0.4856
   4   C4       13.6137    2.9885   23.3608  C.2 1 <0>  0.8408
   5   C5       14.7554    1.0811   25.8727  C.3 1 <0>  0.0000
   6   C6       15.6174    1.0175   27.1124  C.3 1 <0>  0.2800
   7   C7       16.7283    2.0138   26.8111  C.3 1 <0>  0.2800
   8   C8       14.8888    2.5360   25.4536  C.3 1 <0>  0.5801
   9   C9       17.9106    1.3823   26.0876  C.3 1 <0>  0.2800
  10   N1       13.6324    3.1470   21.9856  N.2 1 <0> -0.6611
  11   N2       14.8304    2.7128   24.0321 N.am 1 <0> -0.4690
  12   N3       14.7434    3.2075   19.9436 N.pl3 1 <0> -0.8501
  13   O1       18.7676   -2.3524   26.1510  O.3 1 <0> -1.0332
  14   O2       20.3972   -0.3812   26.2318  O.3 1 <0> -1.0332
  15   O3       12.5538    3.0863   23.9817  O.2 1 <0> -0.5698
  16   O4       18.9314   -0.7527   24.1606  O.2 1 <0> -1.0332
  17   O5       16.1542    3.0065   25.9389  O.3 1 <0> -0.5601
  18   O6       14.8663    1.4553   28.2426  O.3 1 <0> -0.6802
  19   O7       17.9091   -0.0135   26.3390  O.3 1 <0> -0.5513
  20   P1       19.0969   -0.9440   25.6653  P.3 1 <0>  1.3711
  21   H1       16.9532    2.6787   21.4022    H 1 <0>  0.1500
  22   H2       16.9021    2.3973   23.8699    H 1 <0>  0.1500
  23   H3       15.0578    0.3633   25.1019    H 1 <0>  0.0000
  24   H4       13.7127    0.8539   26.1327    H 1 <0>  0.0000
  25   H5       15.9819    0.0159   27.2922    H 1 <0>  0.0000
  26   H6       17.0808    2.5092   27.7092    H 1 <0>  0.0000
  27   H7       14.0840    3.1534   25.8899    H 1 <0>  0.0000
  28   H8       18.8490    1.8078   26.4511    H 1 <0>  0.0000
  29   H9       17.8303    1.5497   25.0110    H 1 <0>  0.0000
  30  H10       15.6063    3.1245   19.4625    H 1 <0>  0.3999
  31  H11       13.8784    3.3996   19.4990    H 1 <0>  0.3999
  32  H12       15.3576    1.2677   29.0458    H 1 <0>  0.3999
@<TRIPOS>BOND
    1     1     2  1
    2     1     3  1
    3     2    11  1
    4     3    10  1
    5     3    12  1
    6     4    10  1
    7     4    11  1
    8     4    15  1
    9     5     6  1
   10     5     8  1
   11     6     7  1
   12     6    18  1
   13     7     9  1
   14     7    17  1
   15     8    11  1
   16     8    17  1
   17     9    19  1
   18    13    20  1
   19    14    20  1
   20    16    20  1
   21    19    20  1
   22     1    21  1
   23     2    22  1
   24     5    23  1
   25     5    24  1
   26     6    25  1
   27     7    26  1
   28     8    27  1
   29     9    28  1
   30     9    29  1
   31    12    30  1
   32    12    31  1
   33    18    32  1

@<TRIPOS>MOLECULE
MOL
   32   33    0    0    0
SMALL
USER_CHARGES


@<TRIPOS>ATOM
   1   C1       16.0009    2.6867   21.9750  C.2 1 <0> -0.1356
   2   C2       15.9728    2.5552   23.2997  C.2 1 <0> -0.0410
   3   C3       14.6988    2.9551   21.3108  C.2 1 <0>  0.4856
   4   C4       13.5810    2.9158   23.3707  C.2 1 <0>  0.8408
   5   C5       14.7565    1.0522   25.8998  C.3 1 <0>  0.0000
   6   C6       15.6279    1.0126   27.1339  C.3 1 <0>  0.2800
   7   C7       16.7283    2.0138   26.8111  C.3 1 <0>  0.2800
   8   C8       14.8748    2.5023   25.4601  C.3 1 <0>  0.5801
   9   C9       17.9106    1.3823   26.0876  C.3 1 <0>  0.2800
  10   N1       13.5885    3.0558   21.9934  N.2 1 <0> -0.6611
  11   N2       14.8047    2.6594   24.0368 N.am 1 <0> -0.4690
  12   N3       14.6843    3.0978   19.9427 N.pl3 1 <0> -0.8501
  13   O1       18.7676   -2.3524   26.1510  O.3 1 <0> -1.0332
  14   O2       20.3972   -0.3812   26.2318  O.3 1 <0> -1.0332
  15   O3       12.5248    3.0133   23.9980  O.2 1 <0> -0.5698
  16   O4       18.9314   -0.7527   24.1606  O.2 1 <0> -1.0332
  17   O5       16.1397    2.9898   25.9298  O.3 1 <0> -0.5601
  18   O6       14.8813    1.4594   28.2636  O.3 1 <0> -0.6802
  19   O7       17.9091   -0.0135   26.3390  O.3 1 <0> -0.5513
  20   P1       19.0969   -0.9440   25.6653  P.3 1 <0>  1.3711
  21   H1       16.9088    2.6071   21.3922    H 1 <0>  0.1500
  22   H2       16.8778    2.3588   23.8638    H 1 <0>  0.1500
  23   H3       15.0594    0.3265   25.1365    H 1 <0>  0.0000
  24   H4       13.7177    0.8199   26.1704    H 1 <0>  0.0000
  25   H5       16.0021    0.0165   27.3246    H 1 <0>  0.0000
  26   H6       17.0831    2.5243   27.6999    H 1 <0>  0.0000
  27   H7       14.0680    3.1189   25.8938    H 1 <0>  0.0000
  28   H8       18.8490    1.8078   26.4511    H 1 <0>  0.0000
  29   H9       17.8303    1.5497   25.0110    H 1 <0>  0.0000
  30  H10       15.5444    3.0154   19.4566    H 1 <0>  0.3999
  31  H11       13.8145    3.2767   19.5019    H 1 <0>  0.3999
  32  H12       15.3799    1.2869   29.0657    H 1 <0>  0.3999
@<TRIPOS>BOND
    1     1     2  1
    2     1     3  1
    3     2    11  1
    4     3    10  1
    5     3    12  1
    6     4    10  1
    7     4    11  1
    8     4    15  1
    9     5     6  1
   10     5     8  1
   11     6     7  1
   12     6    18  1
   13     7     9  1
   14     7    17  1
   15     8    11  1
   16     8    17  1
   17     9    19  1
   18    13    20  1
   19    14    20  1
   20    16    20  1
   21    19    20  1
   22     1    21  1
   23     2    22  1
   24     5    23  1
   25     5    24  1
   26     6    25  1
   27     7    26  1
   28     8    27  1
   29     9    28  1
   30     9    29  1
   31    12    30  1
   32    12    31  1
   33    18    32  1

@<TRIPOS>MOLECULE
MOL
   32   33    0    0    0
SMALL
USER_CHARGES


@<TRIPOS>ATOM
   1   C1       15.9606    2.6149   21.9718  C.2 1 <0> -0.1356
   2   C2       15.9431    2.5012   23.2983  C.2 1 <0> -0.0410
   3   C3       14.6515    2.8636   21.3135  C.2 1 <0>  0.4856
   4   C4       13.5490    2.8431   23.3819  C.2 1 <0>  0.8408
   5   C5       14.7581    1.0237   25.9273  C.3 1 <0>  0.0000
   6   C6       15.6386    1.0080   27.1554  C.3 1 <0>  0.2800
   7   C7       16.7283    2.0138   26.8111  C.3 1 <0>  0.2800
   8   C8       14.8611    2.4687   25.4672  C.3 1 <0>  0.5801
   9   C9       17.9106    1.3823   26.0876  C.3 1 <0>  0.2800
  10   N1       13.5454    2.9644   22.0028  N.2 1 <0> -0.6611
  11   N2       14.7795    2.6058   24.0424 N.am 1 <0> -0.4690
  12   N3       14.6260    2.9875   19.9438 N.pl3 1 <0> -0.8501
  13   O1       18.7676   -2.3524   26.1510  O.3 1 <0> -1.0332
  14   O2       20.3972   -0.3812   26.2318  O.3 1 <0> -1.0332
  15   O3       12.4965    2.9404   24.0155  O.2 1 <0> -0.5698
  16   O4       18.9314   -0.7527   24.1606  O.2 1 <0> -1.0332
  17   O5       16.1253    2.9728   25.9210  O.3 1 <0> -0.5601
  18   O6       14.8965    1.4640   28.2844  O.3 1 <0> -0.6802
  19   O7       17.9091   -0.0135   26.3390  O.3 1 <0> -0.5513
  20   P1       19.0969   -0.9440   25.6653  P.3 1 <0>  1.3711
  21   H1       16.8649    2.5349   21.3835    H 1 <0>  0.1500
  22   H2       16.8538    2.3199   23.8584    H 1 <0>  0.1500
  23   H3       15.0616    0.2903   25.1717    H 1 <0>  0.0000
  24   H4       13.7232    0.7866   26.2086    H 1 <0>  0.0000
  25   H5       16.0224    0.0178   27.3568    H 1 <0>  0.0000
  26   H6       17.0852    2.5392   27.6903    H 1 <0>  0.0000
  27   H7       14.0524    3.0844   25.8984    H 1 <0>  0.0000
  28   H8       18.8490    1.8078   26.4511    H 1 <0>  0.0000
  29   H9       17.8303    1.5497   25.0110    H 1 <0>  0.0000
  30  H10       15.4833    2.9056   19.4525    H 1 <0>  0.3999
  31  H11       13.7517    3.1533   19.5070    H 1 <0>  0.3999
  32  H12       15.4023    1.3065   29.0851    H 1 <0>  0.3999
@<TRIPOS>BOND
    1     1     2  1
    2     1     3  1
    3     2    11  1
    4     3    10  1
    5     3    12  1
    6     4    10  1
    7     4    11  1
    8     4    15  1
    9     5     6  1
   10     5     8  1
   11     6     7  1
   12     6    18  1
   13     7     9  1
   14     7    17  1
   15     8    11  1
   16     8    17  1
   17     9    19  1
   18    13    20  1
   19    14    20  1
   20    16    20  1
   21    19    20  1
   22     1    21  1
   23     2    22  1
   24     5    23  1
   25     5    24  1
   26     6    25  1
   27     7    26  1
   28     8    27  1
   29     9    28  1
   30     9    29  1
   31    12    30  1
   32    12    31  1
   33    18    32  1

@<TRIPOS>MOLECULE
MOL
   32   33    0    0    0
SMALL
USER_CHARGES


@<TRIPOS>ATOM
   1   C1       15.9209    2.5428   21.9698  C.2 1 <0> -0.1356
   2   C2       15.9139    2.4470   23.2978  C.2 1 <0> -0.0410
   3   C3       14.6051    2.7717   21.3178  C.2 1 <0>  0.4856
   4   C4       13.5177    2.7702   23.3943  C.2 1 <0>  0.8408
   5   C5       14.7602    0.9956   25.9551  C.3 1 <0>  0.0000
   6   C6       15.6495    1.0038   27.1769  C.3 1 <0>  0.2800
   7   C7       16.7283    2.0138   26.8111  C.3 1 <0>  0.2800
   8   C8       14.8478    2.4350   25.4748  C.3 1 <0>  0.5801
   9   C9       17.9106    1.3823   26.0876  C.3 1 <0>  0.2800
  10   N1       13.5032    2.8728   22.0137  N.2 1 <0> -0.6611
  11   N2       14.7548    2.5521   24.0490 N.am 1 <0> -0.4690
  12   N3       14.5687    2.8768   19.9468 N.pl3 1 <0> -0.8501
  13   O1       18.7676   -2.3524   26.1510  O.3 1 <0> -1.0332
  14   O2       20.3972   -0.3812   26.2318  O.3 1 <0> -1.0332
  15   O3       12.4690    2.8674   24.0341  O.2 1 <0> -0.5698
  16   O4       18.9314   -0.7527   24.1606  O.2 1 <0> -1.0332
  17   O5       16.1109    2.9557   25.9125  O.3 1 <0> -0.5601
  18   O6       14.9118    1.4690   28.3050  O.3 1 <0> -0.6802
  19   O7       17.9091   -0.0135   26.3390  O.3 1 <0> -0.5513
  20   P1       19.0969   -0.9440   25.6653  P.3 1 <0>  1.3711
  21   H1       16.8216    2.4623   21.3761    H 1 <0>  0.1500
  22   H2       16.8300    2.2808   23.8537    H 1 <0>  0.1500
  23   H3       15.0643    0.2545   25.2074    H 1 <0>  0.0000
  24   H4       13.7293    0.7538   26.2472    H 1 <0>  0.0000
  25   H5       16.0430    0.0196   27.3888    H 1 <0>  0.0000
  26   H6       17.0871    2.5540   27.6805    H 1 <0>  0.0000
  27   H7       14.0370    3.0498   25.9036    H 1 <0>  0.0000
  28   H8       18.8490    1.8078   26.4511    H 1 <0>  0.0000
  29   H9       17.8303    1.5497   25.0110    H 1 <0>  0.0000
  30  H10       15.4231    2.7953   19.4504    H 1 <0>  0.3999
  31  H11       13.6899    3.0294   19.5141    H 1 <0>  0.3999
  32  H12       15.4246    1.3265   29.1040    H 1 <0>  0.3999
@<TRIPOS>BOND
    1     1     2  1
    2     1     3  1
    3     2    11  1
    4     3    10  1
    5     3    12  1
    6     4    10  1
    7     4    11  1
    8     4    15  1
    9     5     6  1
   10     5     8  1
   11     6     7  1
   12     6    18  1
   13     7     9  1
   14     7    17  1
   15     8    11  1
   16     8    17  1
   17     9    19  1
   18    13    20  1
   19    14    20  1
   20    16    20  1
   21    19    20  1
   22     1    21  1
   23     2    22  1
   24     5    23  1
   25     5    24  1
   26     6    25  1
   27     7    26  1
   28     8    27  1
   29     9    28  1
   30     9    29  1
   31    12    30  1
   32    12    31  1
   33    18    32  1

@<TRIPOS>MOLECULE
MOL
   32   33    0    0    0
SMALL
USER_CHARGES


@<TRIPOS>ATOM
   1   C1       15.8818    2.4704   21.9691  C.2 1 <0> -0.1356
   2   C2       15.8851    2.3925   23.2983  C.2 1 <0> -0.0410
   3   C3       14.5595    2.6795   21.3237  C.2 1 <0>  0.4856
   4   C4       13.4870    2.6973   23.4078  C.2 1 <0>  0.8408
   5   C5       14.7626    0.9678   25.9833  C.3 1 <0>  0.0000
   6   C6       15.6607    1.0000   27.1984  C.3 1 <0>  0.2800
   7   C7       16.7283    2.0138   26.8111  C.3 1 <0>  0.2800
   8   C8       14.8348    2.4013   25.4830  C.3 1 <0>  0.5801
   9   C9       17.9106    1.3823   26.0876  C.3 1 <0>  0.2800
  10   N1       13.4617    2.7810   22.0262  N.2 1 <0> -0.6611
  11   N2       14.7306    2.4982   24.0564 N.am 1 <0> -0.4690
  12   N3       14.5124    2.7657   19.9516 N.pl3 1 <0> -0.8501
  13   O1       18.7676   -2.3524   26.1510  O.3 1 <0> -1.0332
  14   O2       20.3972   -0.3812   26.2318  O.3 1 <0> -1.0332
  15   O3       12.4422    2.7945   24.0540  O.2 1 <0> -0.5698
  16   O4       18.9314   -0.7527   24.1606  O.2 1 <0> -1.0332
  17   O5       16.0967    2.9382   25.9044  O.3 1 <0> -0.5601
  18   O6       14.9272    1.4743   28.3254  O.3 1 <0> -0.6802
  19   O7       17.9091   -0.0135   26.3390  O.3 1 <0> -0.5513
  20   P1       19.0969   -0.9440   25.6653  P.3 1 <0>  1.3711
  21   H1       16.7788    2.3892   21.3700    H 1 <0>  0.1500
  22   H2       16.8065    2.2415   23.8497    H 1 <0>  0.1500
  23   H3       15.0675    0.2192   25.2435    H 1 <0>  0.0000
  24   H4       13.7359    0.7216   26.2861    H 1 <0>  0.0000
  25   H5       16.0639    0.0221   27.4207    H 1 <0>  0.0000
  26   H6       17.0888    2.5687   27.6704    H 1 <0>  0.0000
  27   H7       14.0221    3.0152   25.9093    H 1 <0>  0.0000
  28   H8       18.8490    1.8078   26.4511    H 1 <0>  0.0000
  29   H9       17.8303    1.5497   25.0110    H 1 <0>  0.0000
  30  H10       15.3638    2.6846   19.4502    H 1 <0>  0.3999
  31  H11       13.6292    2.9052   19.5234    H 1 <0>  0.3999
  32  H12       15.4468    1.3470   29.1225    H 1 <0>  0.3999
@<TRIPOS>BOND
    1     1     2  1
    2     1     3  1
    3     2    11  1
    4     3    10  1
    5     3    12  1
    6     4    10  1
    7     4    11  1
    8     4    15  1
    9     5     6  1
   10     5     8  1
   11     6     7  1
   12     6    18  1
   13     7     9  1
   14     7    17  1
   15     8    11  1
   16     8    17  1
   17     9    19  1
   18    13    20  1
   19    14    20  1
   20    16    20  1
   21    19    20  1
   22     1    21  1
   23     2    22  1
   24     5    23  1
   25     5    24  1
   26     6    25  1
   27     7    26  1
   28     8    27  1
   29     9    28  1
   30     9    29  1
   31    12    30  1
   32    12    31  1
   33    18    32  1

@<TRIPOS>MOLECULE
MOL
   32   33    0    0    0
SMALL
USER_CHARGES


@<TRIPOS>ATOM
   1   C1       15.8433    2.3976   21.9697  C.2 1 <0> -0.1356
   2   C2       15.8568    2.3379   23.2998  C.2 1 <0> -0.0410
   3   C3       14.5147    2.5871   21.3311  C.2 1 <0>  0.4856
   4   C4       13.4571    2.6243   23.4226  C.2 1 <0>  0.8408
   5   C5       14.7655    0.9405   26.0119  C.3 1 <0>  0.0000
   6   C6       15.6720    0.9966   27.2198  C.3 1 <0>  0.2800
   7   C7       16.7283    2.0138   26.8111  C.3 1 <0>  0.2800
   8   C8       14.8221    2.3676   25.4917  C.3 1 <0>  0.5801
   9   C9       17.9106    1.3823   26.0876  C.3 1 <0>  0.2800
  10   N1       13.4212    2.6890   22.0402  N.2 1 <0> -0.6611
  11   N2       14.7069    2.4443   24.0647 N.am 1 <0> -0.4690
  12   N3       14.4570    2.6543   19.9585 N.pl3 1 <0> -0.8501
  13   O1       18.7676   -2.3524   26.1510  O.3 1 <0> -1.0332
  14   O2       20.3972   -0.3812   26.2318  O.3 1 <0> -1.0332
  15   O3       12.4161    2.7217   24.0750  O.2 1 <0> -0.5698
  16   O4       18.9314   -0.7527   24.1606  O.2 1 <0> -1.0332
  17   O5       16.0825    2.9206   25.8966  O.3 1 <0> -0.5601
  18   O6       14.9426    1.4801   28.3457  O.3 1 <0> -0.6802
  19   O7       17.9091   -0.0135   26.3390  O.3 1 <0> -0.5513
  20   P1       19.0969   -0.9440   25.6653  P.3 1 <0>  1.3711
  21   H1       16.7367    2.3157   21.3652    H 1 <0>  0.1500
  22   H2       16.7834    2.2019   23.8464    H 1 <0>  0.1500
  23   H3       15.0713    0.1845   25.2800    H 1 <0>  0.0000
  24   H4       13.7431    0.6900   26.3255    H 1 <0>  0.0000
  25   H5       16.0849    0.0251   27.4524    H 1 <0>  0.0000
  26   H6       17.0903    2.5833   27.6602    H 1 <0>  0.0000
  27   H7       14.0074    2.9805   25.9156    H 1 <0>  0.0000
  28   H8       18.8490    1.8078   26.4511    H 1 <0>  0.0000
  29   H9       17.8303    1.5497   25.0110    H 1 <0>  0.0000
  30  H10       15.3055    2.5733   19.4520    H 1 <0>  0.3999
  31  H11       13.5697    2.7806   19.5348    H 1 <0>  0.3999
  32  H12       15.4691    1.3679   29.1406    H 1 <0>  0.3999
@<TRIPOS>BOND
    1     1     2  1
    2     1     3  1
    3     2    11  1
    4     3    10  1
    5     3    12  1
    6     4    10  1
    7     4    11  1
    8     4    15  1
    9     5     6  1
   10     5     8  1
   11     6     7  1
   12     6    18  1
   13     7     9  1
   14     7    17  1
   15     8    11  1
   16     8    17  1
   17     9    19  1
   18    13    20  1
   19    14    20  1
   20    16    20  1
   21    19    20  1
   22     1    21  1
   23     2    22  1
   24     5    23  1
   25     5    24  1
   26     6    25  1
   27     7    26  1
   28     8    27  1
   29     9    28  1
   30     9    29  1
   31    12    30  1
   32    12    31  1
   33    18    32  1

@<TRIPOS>MOLECULE
MOL
   32   33    0    0    0
SMALL
USER_CHARGES


@<TRIPOS>ATOM
   1   C1       15.8054    2.3245   21.9715  C.2 1 <0> -0.1356
   2   C2       15.8289    2.2830   23.3022  C.2 1 <0> -0.0410
   3   C3       14.4707    2.4944   21.3402  C.2 1 <0>  0.4856
   4   C4       13.4279    2.5512   23.4386  C.2 1 <0>  0.8408
   5   C5       14.7688    0.9137   26.0408  C.3 1 <0>  0.0000
   6   C6       15.6834    0.9936   27.2412  C.3 1 <0>  0.2800
   7   C7       16.7283    2.0138   26.8111  C.3 1 <0>  0.2800
   8   C8       14.8098    2.3339   25.5010  C.3 1 <0>  0.5801
   9   C9       17.9106    1.3823   26.0876  C.3 1 <0>  0.2800
  10   N1       13.3815    2.5969   22.0558  N.2 1 <0> -0.6611
  11   N2       14.6837    2.3903   24.0740 N.am 1 <0> -0.4690
  12   N3       14.4026    2.5424   19.9672 N.pl3 1 <0> -0.8501
  13   O1       18.7676   -2.3524   26.1510  O.3 1 <0> -1.0332
  14   O2       20.3972   -0.3812   26.2318  O.3 1 <0> -1.0332
  15   O3       12.3909    2.6489   24.0972  O.2 1 <0> -0.5698
  16   O4       18.9314   -0.7527   24.1606  O.2 1 <0> -1.0332
  17   O5       16.0684    2.9028   25.8892  O.3 1 <0> -0.5601
  18   O6       14.9582    1.4863   28.3657  O.3 1 <0> -0.6802
  19   O7       17.9091   -0.0135   26.3390  O.3 1 <0> -0.5513
  20   P1       19.0969   -0.9440   25.6653  P.3 1 <0>  1.3711
  21   H1       16.6950    2.2418   21.3617    H 1 <0>  0.1500
  22   H2       16.7605    2.1621   23.8438    H 1 <0>  0.1500
  23   H3       15.0757    0.1503   25.3170    H 1 <0>  0.0000
  24   H4       13.7508    0.6589   26.3652    H 1 <0>  0.0000
  25   H5       16.1061    0.0288   27.4839    H 1 <0>  0.0000
  26   H6       17.0916    2.5977   27.6498    H 1 <0>  0.0000
  27   H7       13.9931    2.9458   25.9225    H 1 <0>  0.0000
  28   H8       18.8490    1.8078   26.4511    H 1 <0>  0.0000
  29   H9       17.8303    1.5497   25.0110    H 1 <0>  0.0000
  30  H10       15.2480    2.4616   19.4557    H 1 <0>  0.3999
  31  H11       13.5112    2.6557   19.5483    H 1 <0>  0.3999
  32  H12       15.4913    1.3892   29.1583    H 1 <0>  0.3999
@<TRIPOS>BOND
    1     1     2  1
    2     1     3  1
    3     2    11  1
    4     3    10  1
    5     3    12  1
    6     4    10  1
    7     4    11  1
    8     4    15  1
    9     5     6  1
   10     5     8  1
   11     6     7  1
   12     6    18  1
   13     7     9  1
   14     7    17  1
   15     8    11  1
   16     8    17  1
   17     9    19  1
   18    13    20  1
   19    14    20  1
   20    16    20  1
   21    19    20  1
   22     1    21  1
   23     2    22  1
   24     5    23  1
   25     5    24  1
   26     6    25  1
   27     7    26  1
   28     8    27  1
   29     9    28  1
   30     9    29  1
   31    12    30  1
   32    12    31  1
   33    18    32  1

@<TRIPOS>MOLECULE
MOL
   32   33    0    0    0
SMALL
USER_CHARGES


@<TRIPOS>ATOM
   1   C1       15.7681    2.2512   21.9746  C.2 1 <0> -0.1356
   2   C2       15.8015    2.2279   23.3055  C.2 1 <0> -0.0410
   3   C3       14.4275    2.4014   21.3508  C.2 1 <0>  0.4856
   4   C4       13.3994    2.4782   23.4558  C.2 1 <0>  0.8408
   5   C5       14.7726    0.8872   26.0701  C.3 1 <0>  0.0000
   6   C6       15.6951    0.9910   27.2626  C.3 1 <0>  0.2800
   7   C7       16.7283    2.0138   26.8111  C.3 1 <0>  0.2800
   8   C8       14.7979    2.3003   25.5108  C.3 1 <0>  0.5801
   9   C9       17.9106    1.3823   26.0876  C.3 1 <0>  0.2800
  10   N1       13.3427    2.5047   22.0729  N.2 1 <0> -0.6611
  11   N2       14.6611    2.3362   24.0841 N.am 1 <0> -0.4690
  12   N3       14.3492    2.4303   19.9778 N.pl3 1 <0> -0.8501
  13   O1       18.7676   -2.3524   26.1510  O.3 1 <0> -1.0332
  14   O2       20.3972   -0.3812   26.2318  O.3 1 <0> -1.0332
  15   O3       12.3663    2.5762   24.1206  O.2 1 <0> -0.5698
  16   O4       18.9314   -0.7527   24.1606  O.2 1 <0> -1.0332
  17   O5       16.0544    2.8847   25.8821  O.3 1 <0> -0.5601
  18   O6       14.9739    1.4929   28.3856  O.3 1 <0> -0.6802
  19   O7       17.9091   -0.0135   26.3390  O.3 1 <0> -0.5513
  20   P1       19.0969   -0.9440   25.6653  P.3 1 <0>  1.3711
  21   H1       16.6540    2.1675   21.3595    H 1 <0>  0.1500
  22   H2       16.7380    2.1221   23.8419    H 1 <0>  0.1500
  23   H3       15.0806    0.1166   25.3544    H 1 <0>  0.0000
  24   H4       13.7591    0.6285   26.4053    H 1 <0>  0.0000
  25   H5       16.1275    0.0330   27.5152    H 1 <0>  0.0000
  26   H6       17.0928    2.6120   27.6391    H 1 <0>  0.0000
  27   H7       13.9791    2.9111   25.9299    H 1 <0>  0.0000
  28   H8       18.8490    1.8078   26.4511    H 1 <0>  0.0000
  29   H9       17.8303    1.5497   25.0110    H 1 <0>  0.0000
  30  H10       15.1916    2.3495   19.4613    H 1 <0>  0.3999
  31  H11       13.4539    2.5305   19.5640    H 1 <0>  0.3999
  32  H12       15.5134    1.4110   29.1754    H 1 <0>  0.3999
@<TRIPOS>BOND
    1     1     2  1
    2     1     3  1
    3     2    11  1
    4     3    10  1
    5     3    12  1
    6     4    10  1
    7     4    11  1
    8     4    15  1
    9     5     6  1
   10     5     8  1
   11     6     7  1
   12     6    18  1
   13     7     9  1
   14     7    17  1
   15     8    11  1
   16     8    17  1
   17     9    19  1
   18    13    20  1
   19    14    20  1
   20    16    20  1
   21    19    20  1
   22     1    21  1
   23     2    22  1
   24     5    23  1
   25     5    24  1
   26     6    25  1
   27     7    26  1
   28     8    27  1
   29     9    28  1
   30     9    29  1
   31    12    30  1
   32    12    31  1
   33    18    32  1

@<TRIPOS>MOLECULE
MOL
   32   33    0    0    0
SMALL
USER_CHARGES


@<TRIPOS>ATOM
   1   C1       15.7314    2.1776   21.9790  C.2 1 <0> -0.1356
   2   C2       15.7746    2.1726   23.3098  C.2 1 <0> -0.0410
   3   C3       14.3852    2.3083   21.3630  C.2 1 <0>  0.4856
   4   C4       13.3716    2.4051   23.4742  C.2 1 <0>  0.8408
   5   C5       14.7768    0.8612   26.0996  C.3 1 <0>  0.0000
   6   C6       15.7069    0.9887   27.2839  C.3 1 <0>  0.2800
   7   C7       16.7283    2.0138   26.8111  C.3 1 <0>  0.2800
   8   C8       14.7863    2.2667   25.5212  C.3 1 <0>  0.5801
   9   C9       17.9106    1.3823   26.0876  C.3 1 <0>  0.2800
  10   N1       13.3048    2.4124   22.0915  N.2 1 <0> -0.6611
  11   N2       14.6389    2.2821   24.0952 N.am 1 <0> -0.4690
  12   N3       14.2968    2.3178   19.9903 N.pl3 1 <0> -0.8501
  13   O1       18.7676   -2.3524   26.1510  O.3 1 <0> -1.0332
  14   O2       20.3972   -0.3812   26.2318  O.3 1 <0> -1.0332
  15   O3       12.3426    2.5037   24.1451  O.2 1 <0> -0.5698
  16   O4       18.9314   -0.7527   24.1606  O.2 1 <0> -1.0332
  17   O5       16.0405    2.8664   25.8754  O.3 1 <0> -0.5601
  18   O6       14.9896    1.4999   28.4052  O.3 1 <0> -0.6802
  19   O7       17.9091   -0.0135   26.3390  O.3 1 <0> -0.5513
  20   P1       19.0969   -0.9440   25.6653  P.3 1 <0>  1.3711
  21   H1       16.6136    2.0929   21.3586    H 1 <0>  0.1500
  22   H2       16.7158    2.0818   23.8407    H 1 <0>  0.1500
  23   H3       15.0861    0.0835   25.3923    H 1 <0>  0.0000
  24   H4       13.7679    0.5987   26.4457    H 1 <0>  0.0000
  25   H5       16.1491    0.0379   27.5463    H 1 <0>  0.0000
  26   H6       17.0937    2.6262   27.6283    H 1 <0>  0.0000
  27   H7       13.9654    2.8764   25.9380    H 1 <0>  0.0000
  28   H8       18.8490    1.8078   26.4511    H 1 <0>  0.0000
  29   H9       17.8303    1.5497   25.0110    H 1 <0>  0.0000
  30  H10       15.1361    2.2370   19.4688    H 1 <0>  0.3999
  31  H11       13.3978    2.4050   19.5817    H 1 <0>  0.3999
  32  H12       15.5355    1.4331   29.1922    H 1 <0>  0.3999
@<TRIPOS>BOND
    1     1     2  1
    2     1     3  1
    3     2    11  1
    4     3    10  1
    5     3    12  1
    6     4    10  1
    7     4    11  1
    8     4    15  1
    9     5     6  1
   10     5     8  1
   11     6     7  1
   12     6    18  1
   13     7     9  1
   14     7    17  1
   15     8    11  1
   16     8    17  1
   17     9    19  1
   18    13    20  1
   19    14    20  1
   20    16    20  1
   21    19    20  1
   22     1    21  1
   23     2    22  1
   24     5    23  1
   25     5    24  1
   26     6    25  1
   27     7    26  1
   28     8    27  1
   29     9    28  1
   30     9    29  1
   31    12    30  1
   32    12    31  1
   33    18    32  1

@<TRIPOS>MOLECULE
MOL
   32   33    0    0    0
SMALL
USER_CHARGES


@<TRIPOS>ATOM
   1   C1       15.6954    2.1038   21.9846  C.2 1 <0> -0.1356
   2   C2       15.7482    2.1172   23.3150  C.2 1 <0> -0.0410
   3   C3       14.3438    2.2150   21.3767  C.2 1 <0>  0.4856
   4   C4       13.3446    2.3321   23.4938  C.2 1 <0>  0.8408
   5   C5       14.7814    0.8356   26.1295  C.3 1 <0>  0.0000
   6   C6       15.7189    0.9868   27.3051  C.3 1 <0>  0.2800
   7   C7       16.7283    2.0138   26.8111  C.3 1 <0>  0.2800
   8   C8       14.7750    2.2332   25.5321  C.3 1 <0>  0.5801
   9   C9       17.9106    1.3823   26.0876  C.3 1 <0>  0.2800
  10   N1       13.2678    2.3200   22.1116  N.2 1 <0> -0.6611
  11   N2       14.6173    2.2280   24.1071 N.am 1 <0> -0.4690
  12   N3       14.2455    2.2052   20.0047 N.pl3 1 <0> -0.8501
  13   O1       18.7676   -2.3524   26.1510  O.3 1 <0> -1.0332
  14   O2       20.3972   -0.3812   26.2318  O.3 1 <0> -1.0332
  15   O3       12.3196    2.4313   24.1707  O.2 1 <0> -0.5698
  16   O4       18.9314   -0.7527   24.1606  O.2 1 <0> -1.0332
  17   O5       16.0267    2.8479   25.8690  O.3 1 <0> -0.5601
  18   O6       15.0055    1.5073   28.4247  O.3 1 <0> -0.6802
  19   O7       17.9091   -0.0135   26.3390  O.3 1 <0> -0.5513
  20   P1       19.0969   -0.9440   25.6653  P.3 1 <0>  1.3711
  21   H1       16.5738    2.0179   21.3590    H 1 <0>  0.1500
  22   H2       16.6939    2.0414   23.8402    H 1 <0>  0.1500
  23   H3       15.0921    0.0509   25.4305    H 1 <0>  0.0000
  24   H4       13.7773    0.5695   26.4865    H 1 <0>  0.0000
  25   H5       16.1709    0.0434   27.5771    H 1 <0>  0.0000
  26   H6       17.0944    2.6402   27.6172    H 1 <0>  0.0000
  27   H7       13.9521    2.8416   25.9465    H 1 <0>  0.0000
  28   H8       18.8490    1.8078   26.4511    H 1 <0>  0.0000
  29   H9       17.8303    1.5497   25.0110    H 1 <0>  0.0000
  30  H10       15.0816    2.1241   19.4783    H 1 <0>  0.3999
  31  H11       13.3428    2.2794   19.6016    H 1 <0>  0.3999
  32  H12       15.5575    1.4557   29.2084    H 1 <0>  0.3999
@<TRIPOS>BOND
    1     1     2  1
    2     1     3  1
    3     2    11  1
    4     3    10  1
    5     3    12  1
    6     4    10  1
    7     4    11  1
    8     4    15  1
    9     5     6  1
   10     5     8  1
   11     6     7  1
   12     6    18  1
   13     7     9  1
   14     7    17  1
   15     8    11  1
   16     8    17  1
   17     9    19  1
   18    13    20  1
   19    14    20  1
   20    16    20  1
   21    19    20  1
   22     1    21  1
   23     2    22  1
   24     5    23  1
   25     5    24  1
   26     6    25  1
   27     7    26  1
   28     8    27  1
   29     9    28  1
   30     9    29  1
   31    12    30  1
   32    12    31  1
   33    18    32  1

@<TRIPOS>MOLECULE
MOL
   32   33    0    0    0
SMALL
USER_CHARGES


@<TRIPOS>ATOM
   1   C1       15.6601    2.0297   21.9915  C.2 1 <0> -0.1356
   2   C2       15.7223    2.0616   23.3212  C.2 1 <0> -0.0410
   3   C3       14.3033    2.1215   21.3920  C.2 1 <0>  0.4856
   4   C4       13.3183    2.2591   23.5146  C.2 1 <0>  0.8408
   5   C5       14.7865    0.8104   26.1597  C.3 1 <0>  0.0000
   6   C6       15.7311    0.9854   27.3263  C.3 1 <0>  0.2800
   7   C7       16.7283    2.0138   26.8111  C.3 1 <0>  0.2800
   8   C8       14.7641    2.1997   25.5435  C.3 1 <0>  0.5801
   9   C9       17.9106    1.3823   26.0876  C.3 1 <0>  0.2800
  10   N1       13.2317    2.2277   22.1332  N.2 1 <0> -0.6611
  11   N2       14.5963    2.1739   24.1199 N.am 1 <0> -0.4690
  12   N3       14.1952    2.0923   20.0211 N.pl3 1 <0> -0.8501
  13   O1       18.7676   -2.3524   26.1510  O.3 1 <0> -1.0332
  14   O2       20.3972   -0.3812   26.2318  O.3 1 <0> -1.0332
  15   O3       12.2975    2.3591   24.1976  O.2 1 <0> -0.5698
  16   O4       18.9314   -0.7527   24.1606  O.2 1 <0> -1.0332
  17   O5       16.0131    2.8293   25.8629  O.3 1 <0> -0.5601
  18   O6       15.0214    1.5150   28.4439  O.3 1 <0> -0.6802
  19   O7       17.9091   -0.0135   26.3390  O.3 1 <0> -0.5513
  20   P1       19.0969   -0.9440   25.6653  P.3 1 <0>  1.3711
  21   H1       16.5346    1.9426   21.3608    H 1 <0>  0.1500
  22   H2       16.6723    2.0007   23.8405    H 1 <0>  0.1500
  23   H3       15.0986    0.0190   25.4691    H 1 <0>  0.0000
  24   H4       13.7872    0.5410   26.5275    H 1 <0>  0.0000
  25   H5       16.1929    0.0494   27.6077    H 1 <0>  0.0000
  26   H6       17.0950    2.6541   27.6060    H 1 <0>  0.0000
  27   H7       13.9392    2.8069   25.9557    H 1 <0>  0.0000
  28   H8       18.8490    1.8078   26.4511    H 1 <0>  0.0000
  29   H9       17.8303    1.5497   25.0110    H 1 <0>  0.0000
  30  H10       15.0282    2.0110   19.4897    H 1 <0>  0.3999
  31  H11       13.2891    2.1536   19.6235    H 1 <0>  0.3999
  32  H12       15.5794    1.4787   29.2242    H 1 <0>  0.3999
@<TRIPOS>BOND
    1     1     2  1
    2     1     3  1
    3     2    11  1
    4     3    10  1
    5     3    12  1
    6     4    10  1
    7     4    11  1
    8     4    15  1
    9     5     6  1
   10     5     8  1
   11     6     7  1
   12     6    18  1
   13     7     9  1
   14     7    17  1
   15     8    11  1
   16     8    17  1
   17     9    19  1
   18    13    20  1
   19    14    20  1
   20    16    20  1
   21    19    20  1
   22     1    21  1
   23     2    22  1
   24     5    23  1
   25     5    24  1
   26     6    25  1
   27     7    26  1
   28     8    27  1
   29     9    28  1
   30     9    29  1
   31    12    30  1
   32    12    31  1
   33    18    32  1

@<TRIPOS>MOLECULE
MOL
   32   33    0    0    0
SMALL
USER_CHARGES


@<TRIPOS>ATOM
   1   C1       15.6254    1.9555   21.9997  C.2 1 <0> -0.1356
   2   C2       15.6969    2.0060   23.3283  C.2 1 <0> -0.0410
   3   C3       14.2636    2.0279   21.4089  C.2 1 <0>  0.4856
   4   C4       13.2928    2.1863   23.5365  C.2 1 <0>  0.8408
   5   C5       14.7919    0.7857   26.1902  C.3 1 <0>  0.0000
   6   C6       15.7434    0.9843   27.3474  C.3 1 <0>  0.2800
   7   C7       16.7283    2.0138   26.8111  C.3 1 <0>  0.2800
   8   C8       14.7536    2.1662   25.5555  C.3 1 <0>  0.5801
   9   C9       17.9106    1.3823   26.0876  C.3 1 <0>  0.2800
  10   N1       13.1966    2.1353   22.1564  N.2 1 <0> -0.6611
  11   N2       14.5757    2.1198   24.1336 N.am 1 <0> -0.4690
  12   N3       14.1459    1.9792   20.0393 N.pl3 1 <0> -0.8501
  13   O1       18.7676   -2.3524   26.1510  O.3 1 <0> -1.0332
  14   O2       20.3972   -0.3812   26.2318  O.3 1 <0> -1.0332
  15   O3       12.2761    2.2870   24.2255  O.2 1 <0> -0.5698
  16   O4       18.9314   -0.7527   24.1606  O.2 1 <0> -1.0332
  17   O5       15.9995    2.8104   25.8572  O.3 1 <0> -0.5601
  18   O6       15.0374    1.5232   28.4629  O.3 1 <0> -0.6802
  19   O7       17.9091   -0.0135   26.3390  O.3 1 <0> -0.5513
  20   P1       19.0969   -0.9440   25.6653  P.3 1 <0>  1.3711
  21   H1       16.4961    1.8670   21.3638    H 1 <0>  0.1500
  22   H2       16.6511    1.9600   23.8414    H 1 <0>  0.1500
  23   H3       15.1057   -0.0124   25.5081    H 1 <0>  0.0000
  24   H4       13.7976    0.5131   26.5689    H 1 <0>  0.0000
  25   H5       16.2150    0.0561   27.6381    H 1 <0>  0.0000
  26   H6       17.0953    2.6678   27.5946    H 1 <0>  0.0000
  27   H7       13.9266    2.7722   25.9654    H 1 <0>  0.0000
  28   H8       18.8490    1.8078   26.4511    H 1 <0>  0.0000
  29   H9       17.8303    1.5497   25.0110    H 1 <0>  0.0000
  30  H10       14.9757    1.8976   19.5030    H 1 <0>  0.3999
  31  H11       13.2365    2.0276   19.6476    H 1 <0>  0.3999
  32  H12       15.6013    1.5020   29.2396    H 1 <0>  0.3999
@<TRIPOS>BOND
    1     1     2  1
    2     1     3  1
    3     2    11  1
    4     3    10  1
    5     3    12  1
    6     4    10  1
    7     4    11  1
    8     4    15  1
    9     5     6  1
   10     5     8  1
   11     6     7  1
   12     6    18  1
   13     7     9  1
   14     7    17  1
   15     8    11  1
   16     8    17  1
   17     9    19  1
   18    13    20  1
   19    14    20  1
   20    16    20  1
   21    19    20  1
   22     1    21  1
   23     2    22  1
   24     5    23  1
   25     5    24  1
   26     6    25  1
   27     7    26  1
   28     8    27  1
   29     9    28  1
   30     9    29  1
   31    12    30  1
   32    12    31  1
   33    18    32  1

@<TRIPOS>MOLECULE
MOL
   32   33    0    0    0
SMALL
USER_CHARGES


@<TRIPOS>ATOM
   1   C1       15.5914    1.8811   22.0091  C.2 1 <0> -0.1356
   2   C2       15.6721    1.9502   23.3363  C.2 1 <0> -0.0410
   3   C3       14.2248    1.9343   21.4273  C.2 1 <0>  0.4856
   4   C4       13.2681    2.1135   23.5596  C.2 1 <0>  0.8408
   5   C5       14.7978    0.7615   26.2210  C.3 1 <0>  0.0000
   6   C6       15.7559    0.9836   27.3685  C.3 1 <0>  0.2800
   7   C7       16.7283    2.0138   26.8111  C.3 1 <0>  0.2800
   8   C8       14.7434    2.1329   25.5680  C.3 1 <0>  0.5801
   9   C9       17.9106    1.3823   26.0876  C.3 1 <0>  0.2800
  10   N1       13.1623    2.0430   22.1811  N.2 1 <0> -0.6611
  11   N2       14.5558    2.0657   24.1482 N.am 1 <0> -0.4690
  12   N3       14.0977    1.8660   20.0594 N.pl3 1 <0> -0.8501
  13   O1       18.7676   -2.3524   26.1510  O.3 1 <0> -1.0332
  14   O2       20.3972   -0.3812   26.2318  O.3 1 <0> -1.0332
  15   O3       12.2555    2.2152   24.2546  O.2 1 <0> -0.5698
  16   O4       18.9314   -0.7527   24.1606  O.2 1 <0> -1.0332
  17   O5       15.9860    2.7913   25.8519  O.3 1 <0> -0.5601
  18   O6       15.0534    1.5318   28.4817  O.3 1 <0> -0.6802
  19   O7       17.9091   -0.0135   26.3390  O.3 1 <0> -0.5513
  20   P1       19.0969   -0.9440   25.6653  P.3 1 <0>  1.3711
  21   H1       16.4582    1.7911   21.3681    H 1 <0>  0.1500
  22   H2       16.6302    1.9190   23.8430    H 1 <0>  0.1500
  23   H3       15.1134   -0.0433   25.5475    H 1 <0>  0.0000
  24   H4       13.8086    0.4858   26.6106    H 1 <0>  0.0000
  25   H5       16.2373    0.0633   27.6682    H 1 <0>  0.0000
  26   H6       17.0955    2.6814   27.5830    H 1 <0>  0.0000
  27   H7       13.9144    2.7376   25.9757    H 1 <0>  0.0000
  28   H8       18.8490    1.8078   26.4511    H 1 <0>  0.0000
  29   H9       17.8303    1.5497   25.0110    H 1 <0>  0.0000
  30  H10       14.9243    1.7839   19.5182    H 1 <0>  0.3999
  31  H11       13.1852    1.9016   19.6737    H 1 <0>  0.3999
  32  H12       15.6230    1.5258   29.2544    H 1 <0>  0.3999
@<TRIPOS>BOND
    1     1     2  1
    2     1     3  1
    3     2    11  1
    4     3    10  1
    5     3    12  1
    6     4    10  1
    7     4    11  1
    8     4    15  1
    9     5     6  1
   10     5     8  1
   11     6     7  1
   12     6    18  1
   13     7     9  1
   14     7    17  1
   15     8    11  1
   16     8    17  1
   17     9    19  1
   18    13    20  1
   19    14    20  1
   20    16    20  1
   21    19    20  1
   22     1    21  1
   23     2    22  1
   24     5    23  1
   25     5    24  1
   26     6    25  1
   27     7    26  1
   28     8    27  1
   29     9    28  1
   30     9    29  1
   31    12    30  1
   32    12    31  1
   33    18    32  1

@<TRIPOS>MOLECULE
MOL
   32   33    0    0    0
SMALL
USER_CHARGES


@<TRIPOS>ATOM
   1   C1       15.5581    1.8065   22.0197  C.2 1 <0> -0.1356
   2   C2       15.6477    1.8943   23.3453  C.2 1 <0> -0.0410
   3   C3       14.1870    1.8406   21.4473  C.2 1 <0>  0.4856
   4   C4       13.2441    2.0408   23.5839  C.2 1 <0>  0.8408
   5   C5       14.8042    0.7377   26.2521  C.3 1 <0>  0.0000
   6   C6       15.7686    0.9832   27.3894  C.3 1 <0>  0.2800
   7   C7       16.7283    2.0138   26.8111  C.3 1 <0>  0.2800
   8   C8       14.7336    2.0997   25.5810  C.3 1 <0>  0.5801
   9   C9       17.9106    1.3823   26.0876  C.3 1 <0>  0.2800
  10   N1       13.1291    1.9508   22.2072  N.2 1 <0> -0.6611
  11   N2       14.5363    2.0116   24.1636 N.am 1 <0> -0.4690
  12   N3       14.0506    1.7527   20.0813 N.pl3 1 <0> -0.8501
  13   O1       18.7676   -2.3524   26.1510  O.3 1 <0> -1.0332
  14   O2       20.3972   -0.3812   26.2318  O.3 1 <0> -1.0332
  15   O3       12.2358    2.1436   24.2848  O.2 1 <0> -0.5698
  16   O4       18.9314   -0.7527   24.1606  O.2 1 <0> -1.0332
  17   O5       15.9727    2.7721   25.8469  O.3 1 <0> -0.5601
  18   O6       15.0695    1.5407   28.5002  O.3 1 <0> -0.6802
  19   O7       17.9091   -0.0135   26.3390  O.3 1 <0> -0.5513
  20   P1       19.0969   -0.9440   25.6653  P.3 1 <0>  1.3711
  21   H1       16.4210    1.7150   21.3737    H 1 <0>  0.1500
  22   H2       16.6097    1.8779   23.8454    H 1 <0>  0.1500
  23   H3       15.1216   -0.0735   25.5872    H 1 <0>  0.0000
  24   H4       13.8200    0.4592   26.6526    H 1 <0>  0.0000
  25   H5       16.2598    0.0711   27.6980    H 1 <0>  0.0000
  26   H6       17.0954    2.6948   27.5712    H 1 <0>  0.0000
  27   H7       13.9025    2.7029   25.9865    H 1 <0>  0.0000
  28   H8       18.8490    1.8078   26.4511    H 1 <0>  0.0000
  29   H9       17.8303    1.5497   25.0110    H 1 <0>  0.0000
  30  H10       14.8740    1.6701   19.5353    H 1 <0>  0.3999
  31  H11       13.1351    1.7755   19.7019    H 1 <0>  0.3999
  32  H12       15.6447    1.5499   29.2688    H 1 <0>  0.3999
@<TRIPOS>BOND
    1     1     2  1
    2     1     3  1
    3     2    11  1
    4     3    10  1
    5     3    12  1
    6     4    10  1
    7     4    11  1
    8     4    15  1
    9     5     6  1
   10     5     8  1
   11     6     7  1
   12     6    18  1
   13     7     9  1
   14     7    17  1
   15     8    11  1
   16     8    17  1
   17     9    19  1
   18    13    20  1
   19    14    20  1
   20    16    20  1
   21    19    20  1
   22     1    21  1
   23     2    22  1
   24     5    23  1
   25     5    24  1
   26     6    25  1
   27     7    26  1
   28     8    27  1
   29     9    28  1
   30     9    29  1
   31    12    30  1
   32    12    31  1
   33    18    32  1

@<TRIPOS>MOLECULE
MOL
   32   33    0    0    0
SMALL
USER_CHARGES


@<TRIPOS>ATOM
   1   C1       15.5255    1.7318   22.0316  C.2 1 <0> -0.1356
   2   C2       15.6239    1.8384   23.3552  C.2 1 <0> -0.0410
   3   C3       14.1501    1.7468   21.4688  C.2 1 <0>  0.4856
   4   C4       13.2209    1.9683   23.6093  C.2 1 <0>  0.8408
   5   C5       14.8109    0.7144   26.2834  C.3 1 <0>  0.0000
   6   C6       15.7814    0.9833   27.4103  C.3 1 <0>  0.2800
   7   C7       16.7283    2.0138   26.8111  C.3 1 <0>  0.2800
   8   C8       14.7242    2.0665   25.5945  C.3 1 <0>  0.5801
   9   C9       17.9106    1.3823   26.0876  C.3 1 <0>  0.2800
  10   N1       13.0968    1.8586   22.2349  N.2 1 <0> -0.6611
  11   N2       14.5175    1.9576   24.1800 N.am 1 <0> -0.4690
  12   N3       14.0047    1.6393   20.1052 N.pl3 1 <0> -0.8501
  13   O1       18.7676   -2.3524   26.1510  O.3 1 <0> -1.0332
  14   O2       20.3972   -0.3812   26.2318  O.3 1 <0> -1.0332
  15   O3       12.2168    2.0723   24.3161  O.2 1 <0> -0.5698
  16   O4       18.9314   -0.7527   24.1606  O.2 1 <0> -1.0332
  17   O5       15.9595    2.7527   25.8423  O.3 1 <0> -0.5601
  18   O6       15.0857    1.5500   28.5185  O.3 1 <0> -0.6802
  19   O7       17.9091   -0.0135   26.3390  O.3 1 <0> -0.5513
  20   P1       19.0969   -0.9440   25.6653  P.3 1 <0>  1.3711
  21   H1       16.3845    1.6387   21.3806    H 1 <0>  0.1500
  22   H2       16.5896    1.8367   23.8484    H 1 <0>  0.1500
  23   H3       15.1303   -0.1030   25.6273    H 1 <0>  0.0000
  24   H4       13.8320    0.4333   26.6948    H 1 <0>  0.0000
  25   H5       16.2824    0.0796   27.7276    H 1 <0>  0.0000
  26   H6       17.0952    2.7081   27.5592    H 1 <0>  0.0000
  27   H7       13.8910    2.6684   25.9979    H 1 <0>  0.0000
  28   H8       18.8490    1.8078   26.4511    H 1 <0>  0.0000
  29   H9       17.8303    1.5497   25.0110    H 1 <0>  0.0000
  30  H10       14.8247    1.5561   19.5543    H 1 <0>  0.3999
  31  H11       13.0862    1.6494   19.7321    H 1 <0>  0.3999
  32  H12       15.6663    1.5744   29.2827    H 1 <0>  0.3999
@<TRIPOS>BOND
    1     1     2  1
    2     1     3  1
    3     2    11  1
    4     3    10  1
    5     3    12  1
    6     4    10  1
    7     4    11  1
    8     4    15  1
    9     5     6  1
   10     5     8  1
   11     6     7  1
   12     6    18  1
   13     7     9  1
   14     7    17  1
   15     8    11  1
   16     8    17  1
   17     9    19  1
   18    13    20  1
   19    14    20  1
   20    16    20  1
   21    19    20  1
   22     1    21  1
   23     2    22  1
   24     5    23  1
   25     5    24  1
   26     6    25  1
   27     7    26  1
   28     8    27  1
   29     9    28  1
   30     9    29  1
   31    12    30  1
   32    12    31  1
   33    18    32  1

@<TRIPOS>MOLECULE
MOL
   32   33    0    0    0
SMALL
USER_CHARGES


@<TRIPOS>ATOM
   1   C1       15.4936    1.6571   22.0448  C.2 1 <0> -0.1356
   2   C2       15.6006    1.7824   23.3660  C.2 1 <0> -0.0410
   3   C3       14.1141    1.6531   21.4918  C.2 1 <0>  0.4856
   4   C4       13.1985    1.8959   23.6359  C.2 1 <0>  0.8408
   5   C5       14.8181    0.6916   26.3150  C.3 1 <0>  0.0000
   6   C6       15.7943    0.9838   27.4311  C.3 1 <0>  0.2800
   7   C7       16.7283    2.0138   26.8111  C.3 1 <0>  0.2800
   8   C8       14.7151    2.0335   25.6085  C.3 1 <0>  0.5801
   9   C9       17.9106    1.3823   26.0876  C.3 1 <0>  0.2800
  10   N1       13.0654    1.7666   22.2640  N.2 1 <0> -0.6611
  11   N2       14.4992    1.9037   24.1972 N.am 1 <0> -0.4690
  12   N3       13.9598    1.5258   20.1309 N.pl3 1 <0> -0.8501
  13   O1       18.7676   -2.3524   26.1510  O.3 1 <0> -1.0332
  14   O2       20.3972   -0.3812   26.2318  O.3 1 <0> -1.0332
  15   O3       12.1987    2.0012   24.3485  O.2 1 <0> -0.5698
  16   O4       18.9314   -0.7527   24.1606  O.2 1 <0> -1.0332
  17   O5       15.9465    2.7331   25.8380  O.3 1 <0> -0.5601
  18   O6       15.1019    1.5597   28.5365  O.3 1 <0> -0.6802
  19   O7       17.9091   -0.0135   26.3390  O.3 1 <0> -0.5513
  20   P1       19.0969   -0.9440   25.6653  P.3 1 <0>  1.3711
  21   H1       16.3487    1.5622   21.3889    H 1 <0>  0.1500
  22   H2       16.5698    1.7953   23.8522    H 1 <0>  0.1500
  23   H3       15.1395   -0.1320   25.6677    H 1 <0>  0.0000
  24   H4       13.8446    0.4081   26.7373    H 1 <0>  0.0000
  25   H5       16.3051    0.0886   27.7569    H 1 <0>  0.0000
  26   H6       17.0947    2.7212   27.5471    H 1 <0>  0.0000
  27   H7       13.8799    2.6339   26.0098    H 1 <0>  0.0000
  28   H8       18.8490    1.8078   26.4511    H 1 <0>  0.0000
  29   H9       17.8303    1.5497   25.0110    H 1 <0>  0.0000
  30  H10       14.7766    1.4419   19.5752    H 1 <0>  0.3999
  31  H11       13.0387    1.5234   19.7645    H 1 <0>  0.3999
  32  H12       15.6878    1.5992   29.2961    H 1 <0>  0.3999
@<TRIPOS>BOND
    1     1     2  1
    2     1     3  1
    3     2    11  1
    4     3    10  1
    5     3    12  1
    6     4    10  1
    7     4    11  1
    8     4    15  1
    9     5     6  1
   10     5     8  1
   11     6     7  1
   12     6    18  1
   13     7     9  1
   14     7    17  1
   15     8    11  1
   16     8    17  1
   17     9    19  1
   18    13    20  1
   19    14    20  1
   20    16    20  1
   21    19    20  1
   22     1    21  1
   23     2    22  1
   24     5    23  1
   25     5    24  1
   26     6    25  1
   27     7    26  1
   28     8    27  1
   29     9    28  1
   30     9    29  1
   31    12    30  1
   32    12    31  1
   33    18    32  1

@<TRIPOS>MOLECULE
MOL
   32   33    0    0    0
SMALL
USER_CHARGES


@<TRIPOS>ATOM
   1   C1       15.4625    1.5822   22.0591  C.2 1 <0> -0.1356
   2   C2       15.5779    1.7263   23.3778  C.2 1 <0> -0.0410
   3   C3       14.0791    1.5594   21.5164  C.2 1 <0>  0.4856
   4   C4       13.1769    1.8237   23.6636  C.2 1 <0>  0.8408
   5   C5       14.8257    0.6693   26.3469  C.3 1 <0>  0.0000
   6   C6       15.8074    0.9846   27.4517  C.3 1 <0>  0.2800
   7   C7       16.7283    2.0138   26.8111  C.3 1 <0>  0.2800
   8   C8       14.7065    2.0005   25.6231  C.3 1 <0>  0.5801
   9   C9       17.9106    1.3823   26.0876  C.3 1 <0>  0.2800
  10   N1       13.0351    1.6747   22.2946  N.2 1 <0> -0.6611
  11   N2       14.4815    1.8498   24.2152 N.am 1 <0> -0.4690
  12   N3       13.9161    1.4124   20.1585 N.pl3 1 <0> -0.8501
  13   O1       18.7676   -2.3524   26.1510  O.3 1 <0> -1.0332
  14   O2       20.3972   -0.3812   26.2318  O.3 1 <0> -1.0332
  15   O3       12.1814    1.9304   24.3820  O.2 1 <0> -0.5698
  16   O4       18.9314   -0.7527   24.1606  O.2 1 <0> -1.0332
  17   O5       15.9335    2.7134   25.8341  O.3 1 <0> -0.5601
  18   O6       15.1182    1.5698   28.5543  O.3 1 <0> -0.6802
  19   O7       17.9091   -0.0135   26.3390  O.3 1 <0> -0.5513
  20   P1       19.0969   -0.9440   25.6653  P.3 1 <0>  1.3711
  21   H1       16.3135    1.4855   21.3984    H 1 <0>  0.1500
  22   H2       16.5504    1.7539   23.8566    H 1 <0>  0.1500
  23   H3       15.1493   -0.1604   25.7084    H 1 <0>  0.0000
  24   H4       13.8576    0.3835   26.7801    H 1 <0>  0.0000
  25   H5       16.3280    0.0982   27.7859    H 1 <0>  0.0000
  26   H6       17.0941    2.7341   27.5348    H 1 <0>  0.0000
  27   H7       13.8692    2.5994   26.0223    H 1 <0>  0.0000
  28   H8       18.8490    1.8078   26.4511    H 1 <0>  0.0000
  29   H9       17.8303    1.5497   25.0110    H 1 <0>  0.0000
  30  H10       14.7295    1.3277   19.5981    H 1 <0>  0.3999
  31  H11       12.9924    1.3973   19.7988    H 1 <0>  0.3999
  32  H12       15.7091    1.6245   29.3090    H 1 <0>  0.3999
@<TRIPOS>BOND
    1     1     2  1
    2     1     3  1
    3     2    11  1
    4     3    10  1
    5     3    12  1
    6     4    10  1
    7     4    11  1
    8     4    15  1
    9     5     6  1
   10     5     8  1
   11     6     7  1
   12     6    18  1
   13     7     9  1
   14     7    17  1
   15     8    11  1
   16     8    17  1
   17     9    19  1
   18    13    20  1
   19    14    20  1
   20    16    20  1
   21    19    20  1
   22     1    21  1
   23     2    22  1
   24     5    23  1
   25     5    24  1
   26     6    25  1
   27     7    26  1
   28     8    27  1
   29     9    28  1
   30     9    29  1
   31    12    30  1
   32    12    31  1
   33    18    32  1

@<TRIPOS>MOLECULE
MOL
   32   33    0    0    0
SMALL
USER_CHARGES


@<TRIPOS>ATOM
   1   C1       15.4320    1.5073   22.0748  C.2 1 <0> -0.1356
   2   C2       15.5557    1.6703   23.3904  C.2 1 <0> -0.0410
   3   C3       14.0450    1.4657   21.5425  C.2 1 <0>  0.4856
   4   C4       13.1561    1.7517   23.6924  C.2 1 <0>  0.8408
   5   C5       14.8337    0.6475   26.3790  C.3 1 <0>  0.0000
   6   C6       15.8207    0.9859   27.4723  C.3 1 <0>  0.2800
   7   C7       16.7283    2.0138   26.8111  C.3 1 <0>  0.2800
   8   C8       14.6982    1.9678   25.6382  C.3 1 <0>  0.5801
   9   C9       17.9106    1.3823   26.0876  C.3 1 <0>  0.2800
  10   N1       13.0057    1.5830   22.3266  N.2 1 <0> -0.6611
  11   N2       14.4643    1.7961   24.2341 N.am 1 <0> -0.4690
  12   N3       13.8735    1.2989   20.1879 N.pl3 1 <0> -0.8501
  13   O1       18.7676   -2.3524   26.1510  O.3 1 <0> -1.0332
  14   O2       20.3972   -0.3812   26.2318  O.3 1 <0> -1.0332
  15   O3       12.1649    1.8600   24.4165  O.2 1 <0> -0.5698
  16   O4       18.9314   -0.7527   24.1606  O.2 1 <0> -1.0332
  17   O5       15.9207    2.6935   25.8305  O.3 1 <0> -0.5601
  18   O6       15.1345    1.5803   28.5719  O.3 1 <0> -0.6802
  19   O7       17.9091   -0.0135   26.3390  O.3 1 <0> -0.5513
  20   P1       19.0969   -0.9440   25.6653  P.3 1 <0>  1.3711
  21   H1       16.2791    1.4087   21.4092    H 1 <0>  0.1500
  22   H2       16.5313    1.7123   23.8618    H 1 <0>  0.1500
  23   H3       15.1596   -0.1881   25.7495    H 1 <0>  0.0000
  24   H4       13.8711    0.3596   26.8230    H 1 <0>  0.0000
  25   H5       16.3510    0.1084   27.8146    H 1 <0>  0.0000
  26   H6       17.0933    2.7468   27.5223    H 1 <0>  0.0000
  27   H7       13.8588    2.5651   26.0354    H 1 <0>  0.0000
  28   H8       18.8490    1.8078   26.4511    H 1 <0>  0.0000
  29   H9       17.8303    1.5497   25.0110    H 1 <0>  0.0000
  30  H10       14.6836    1.2134   19.6228    H 1 <0>  0.3999
  31  H11       12.9474    1.2714   19.8352    H 1 <0>  0.3999
  32  H12       15.7304    1.6500   29.3214    H 1 <0>  0.3999
@<TRIPOS>BOND
    1     1     2  1
    2     1     3  1
    3     2    11  1
    4     3    10  1
    5     3    12  1
    6     4    10  1
    7     4    11  1
    8     4    15  1
    9     5     6  1
   10     5     8  1
   11     6     7  1
   12     6    18  1
   13     7     9  1
   14     7    17  1
   15     8    11  1
   16     8    17  1
   17     9    19  1
   18    13    20  1
   19    14    20  1
   20    16    20  1
   21    19    20  1
   22     1    21  1
   23     2    22  1
   24     5    23  1
   25     5    24  1
   26     6    25  1
   27     7    26  1
   28     8    27  1
   29     9    28  1
   30     9    29  1
   31    12    30  1
   32    12    31  1
   33    18    32  1

@<TRIPOS>MOLECULE
MOL
   32   33    0    0    0
SMALL
USER_CHARGES


@<TRIPOS>ATOM
   1   C1       15.4023    1.4324   22.0916  C.2 1 <0> -0.1356
   2   C2       15.5341    1.6142   23.4040  C.2 1 <0> -0.0410
   3   C3       14.0119    1.3721   21.5701  C.2 1 <0>  0.4856
   4   C4       13.1361    1.6800   23.7224  C.2 1 <0>  0.8408
   5   C5       14.8421    0.6262   26.4113  C.3 1 <0>  0.0000
   6   C6       15.8341    0.9875   27.4927  C.3 1 <0>  0.2800
   7   C7       16.7283    2.0138   26.8111  C.3 1 <0>  0.2800
   8   C8       14.6903    1.9351   25.6537  C.3 1 <0>  0.5801
   9   C9       17.9106    1.3823   26.0876  C.3 1 <0>  0.2800
  10   N1       12.9773    1.4915   22.3601  N.2 1 <0> -0.6611
  11   N2       14.4478    1.7425   24.2539 N.am 1 <0> -0.4690
  12   N3       13.8321    1.1856   20.2191 N.pl3 1 <0> -0.8501
  13   O1       18.7676   -2.3524   26.1510  O.3 1 <0> -1.0332
  14   O2       20.3972   -0.3812   26.2318  O.3 1 <0> -1.0332
  15   O3       12.1493    1.7899   24.4522  O.2 1 <0> -0.5698
  16   O4       18.9314   -0.7527   24.1606  O.2 1 <0> -1.0332
  17   O5       15.9081    2.6734   25.8274  O.3 1 <0> -0.5601
  18   O6       15.1509    1.5911   28.5891  O.3 1 <0> -0.6802
  19   O7       17.9091   -0.0135   26.3390  O.3 1 <0> -0.5513
  20   P1       19.0969   -0.9440   25.6653  P.3 1 <0>  1.3711
  21   H1       16.2454    1.3317   21.4213    H 1 <0>  0.1500
  22   H2       16.5127    1.6707   23.8677    H 1 <0>  0.1500
  23   H3       15.1704   -0.2151   25.7908    H 1 <0>  0.0000
  24   H4       13.8852    0.3365   26.8662    H 1 <0>  0.0000
  25   H5       16.3741    0.1191   27.8430    H 1 <0>  0.0000
  26   H6       17.0922    2.7594   27.5096    H 1 <0>  0.0000
  27   H7       13.8488    2.5308   26.0489    H 1 <0>  0.0000
  28   H8       18.8490    1.8078   26.4511    H 1 <0>  0.0000
  29   H9       17.8303    1.5497   25.0110    H 1 <0>  0.0000
  30  H10       14.6388    1.0990   19.6493    H 1 <0>  0.3999
  31  H11       12.9038    1.1457   19.8736    H 1 <0>  0.3999
  32  H12       15.7515    1.6759   29.3333    H 1 <0>  0.3999
@<TRIPOS>BOND
    1     1     2  1
    2     1     3  1
    3     2    11  1
    4     3    10  1
    5     3    12  1
    6     4    10  1
    7     4    11  1
    8     4    15  1
    9     5     6  1
   10     5     8  1
   11     6     7  1
   12     6    18  1
   13     7     9  1
   14     7    17  1
   15     8    11  1
   16     8    17  1
   17     9    19  1
   18    13    20  1
   19    14    20  1
   20    16    20  1
   21    19    20  1
   22     1    21  1
   23     2    22  1
   24     5    23  1
   25     5    24  1
   26     6    25  1
   27     7    26  1
   28     8    27  1
   29     9    28  1
   30     9    29  1
   31    12    30  1
   32    12    31  1
   33    18    32  1

@<TRIPOS>MOLECULE
MOL
   32   33    0    0    0
SMALL
USER_CHARGES


@<TRIPOS>ATOM
   1   C1       15.3734    1.3575   22.1097  C.2 1 <0> -0.1356
   2   C2       15.5130    1.5582   23.4186  C.2 1 <0> -0.0410
   3   C3       13.9798    1.2787   21.5992  C.2 1 <0>  0.4856
   4   C4       13.1170    1.6085   23.7534  C.2 1 <0>  0.8408
   5   C5       14.8509    0.6054   26.4439  C.3 1 <0>  0.0000
   6   C6       15.8476    0.9895   27.5130  C.3 1 <0>  0.2800
   7   C7       16.7283    2.0138   26.8111  C.3 1 <0>  0.2800
   8   C8       14.6827    1.9026   25.6698  C.3 1 <0>  0.5801
   9   C9       17.9106    1.3823   26.0876  C.3 1 <0>  0.2800
  10   N1       12.9499    1.4002   22.3950  N.2 1 <0> -0.6611
  11   N2       14.4318    1.6890   24.2745 N.am 1 <0> -0.4690
  12   N3       13.7918    1.0723   20.2522 N.pl3 1 <0> -0.8501
  13   O1       18.7676   -2.3524   26.1510  O.3 1 <0> -1.0332
  14   O2       20.3972   -0.3812   26.2318  O.3 1 <0> -1.0332
  15   O3       12.1345    1.7202   24.4889  O.2 1 <0> -0.5698
  16   O4       18.9314   -0.7527   24.1606  O.2 1 <0> -1.0332
  17   O5       15.8955    2.6532   25.8245  O.3 1 <0> -0.5601
  18   O6       15.1673    1.6023   28.6061  O.3 1 <0> -0.6802
  19   O7       17.9091   -0.0135   26.3390  O.3 1 <0> -0.5513
  20   P1       19.0969   -0.9440   25.6653  P.3 1 <0>  1.3711
  21   H1       16.2124    1.2547   21.4346    H 1 <0>  0.1500
  22   H2       16.4944    1.6290   23.8742    H 1 <0>  0.1500
  23   H3       15.1818   -0.2415   25.8324    H 1 <0>  0.0000
  24   H4       13.8998    0.3140   26.9096    H 1 <0>  0.0000
  25   H5       16.3973    0.1304   27.8710    H 1 <0>  0.0000
  26   H6       17.0910    2.7718   27.4968    H 1 <0>  0.0000
  27   H7       13.8392    2.4967   26.0630    H 1 <0>  0.0000
  28   H8       18.8490    1.8078   26.4511    H 1 <0>  0.0000
  29   H9       17.8303    1.5497   25.0110    H 1 <0>  0.0000
  30  H10       14.5951    0.9847   19.6778    H 1 <0>  0.3999
  31  H11       12.8614    1.0201   19.9141    H 1 <0>  0.3999
  32  H12       15.7725    1.7022   29.3446    H 1 <0>  0.3999
@<TRIPOS>BOND
    1     1     2  1
    2     1     3  1
    3     2    11  1
    4     3    10  1
    5     3    12  1
    6     4    10  1
    7     4    11  1
    8     4    15  1
    9     5     6  1
   10     5     8  1
   11     6     7  1
   12     6    18  1
   13     7     9  1
   14     7    17  1
   15     8    11  1
   16     8    17  1
   17     9    19  1
   18    13    20  1
   19    14    20  1
   20    16    20  1
   21    19    20  1
   22     1    21  1
   23     2    22  1
   24     5    23  1
   25     5    24  1
   26     6    25  1
   27     7    26  1
   28     8    27  1
   29     9    28  1
   30     9    29  1
   31    12    30  1
   32    12    31  1
   33    18    32  1

@<TRIPOS>MOLECULE
MOL
   32   33    0    0    0
SMALL
USER_CHARGES


@<TRIPOS>ATOM
   1   C1       15.3452    1.2826   22.1290  C.2 1 <0> -0.1356
   2   C2       15.4925    1.5021   23.4340  C.2 1 <0> -0.0410
   3   C3       13.9487    1.1854   21.6298  C.2 1 <0>  0.4856
   4   C4       13.0986    1.5373   23.7856  C.2 1 <0>  0.8408
   5   C5       14.8601    0.5851   26.4767  C.3 1 <0>  0.0000
   6   C6       15.8612    0.9919   27.5332  C.3 1 <0>  0.2800
   7   C7       16.7283    2.0138   26.8111  C.3 1 <0>  0.2800
   8   C8       14.6756    1.8703   25.6863  C.3 1 <0>  0.5801
   9   C9       17.9106    1.3823   26.0876  C.3 1 <0>  0.2800
  10   N1       12.9236    1.3092   22.4314  N.2 1 <0> -0.6611
  11   N2       14.4165    1.6357   24.2959 N.am 1 <0> -0.4690
  12   N3       13.7528    0.9592   20.2871 N.pl3 1 <0> -0.8501
  13   O1       18.7676   -2.3524   26.1510  O.3 1 <0> -1.0332
  14   O2       20.3972   -0.3812   26.2318  O.3 1 <0> -1.0332
  15   O3       12.1205    1.6508   24.5266  O.2 1 <0> -0.5698
  16   O4       18.9314   -0.7527   24.1606  O.2 1 <0> -1.0332
  17   O5       15.8832    2.6329   25.8221  O.3 1 <0> -0.5601
  18   O6       15.1837    1.6138   28.6229  O.3 1 <0> -0.6802
  19   O7       17.9091   -0.0135   26.3390  O.3 1 <0> -0.5513
  20   P1       19.0969   -0.9440   25.6653  P.3 1 <0>  1.3711
  21   H1       16.1802    1.1775   21.4493    H 1 <0>  0.1500
  22   H2       16.4766    1.5873   23.8815    H 1 <0>  0.1500
  23   H3       15.1937   -0.2673   25.8743    H 1 <0>  0.0000
  24   H4       13.9148    0.2922   26.9532    H 1 <0>  0.0000
  25   H5       16.4206    0.1423   27.8988    H 1 <0>  0.0000
  26   H6       17.0896    2.7840   27.4838    H 1 <0>  0.0000
  27   H7       13.8300    2.4627   26.0776    H 1 <0>  0.0000
  28   H8       18.8490    1.8078   26.4511    H 1 <0>  0.0000
  29   H9       17.8303    1.5497   25.0110    H 1 <0>  0.0000
  30  H10       14.5526    0.8704   19.7081    H 1 <0>  0.3999
  31  H11       12.8204    0.8947   19.9565    H 1 <0>  0.3999
  32  H12       15.7933    1.7287   29.3555    H 1 <0>  0.3999
@<TRIPOS>BOND
    1     1     2  1
    2     1     3  1
    3     2    11  1
    4     3    10  1
    5     3    12  1
    6     4    10  1
    7     4    11  1
    8     4    15  1
    9     5     6  1
   10     5     8  1
   11     6     7  1
   12     6    18  1
   13     7     9  1
   14     7    17  1
   15     8    11  1
   16     8    17  1
   17     9    19  1
   18    13    20  1
   19    14    20  1
   20    16    20  1
   21    19    20  1
   22     1    21  1
   23     2    22  1
   24     5    23  1
   25     5    24  1
   26     6    25  1
   27     7    26  1
   28     8    27  1
   29     9    28  1
   30     9    29  1
   31    12    30  1
   32    12    31  1
   33    18    32  1

@<TRIPOS>MOLECULE
MOL
   32   33    0    0    0
SMALL
USER_CHARGES


@<TRIPOS>ATOM
   1   C1       15.3177    1.2077   22.1495  C.2 1 <0> -0.1356
   2   C2       15.4726    1.4462   23.4503  C.2 1 <0> -0.0410
   3   C3       13.9186    1.0922   21.6618  C.2 1 <0>  0.4856
   4   C4       13.0811    1.4664   23.8189  C.2 1 <0>  0.8408
   5   C5       14.8697    0.5654   26.5096  C.3 1 <0>  0.0000
   6   C6       15.8749    0.9947   27.5532  C.3 1 <0>  0.2800
   7   C7       16.7283    2.0138   26.8111  C.3 1 <0>  0.2800
   8   C8       14.6688    1.8381   25.7034  C.3 1 <0>  0.5801
   9   C9       17.9106    1.3823   26.0876  C.3 1 <0>  0.2800
  10   N1       12.8982    1.2185   22.4692  N.2 1 <0> -0.6611
  11   N2       14.4017    1.5825   24.3182 N.am 1 <0> -0.4690
  12   N3       13.7149    0.8462   20.3239 N.pl3 1 <0> -0.8501
  13   O1       18.7676   -2.3524   26.1510  O.3 1 <0> -1.0332
  14   O2       20.3972   -0.3812   26.2318  O.3 1 <0> -1.0332
  15   O3       12.1074    1.5819   24.5654  O.2 1 <0> -0.5698
  16   O4       18.9314   -0.7527   24.1606  O.2 1 <0> -1.0332
  17   O5       15.8710    2.6124   25.8200  O.3 1 <0> -0.5601
  18   O6       15.2001    1.6258   28.6393  O.3 1 <0> -0.6802
  19   O7       17.9091   -0.0135   26.3390  O.3 1 <0> -0.5513
  20   P1       19.0969   -0.9440   25.6653  P.3 1 <0>  1.3711
  21   H1       16.1487    1.1003   21.4652    H 1 <0>  0.1500
  22   H2       16.4591    1.5455   23.8894    H 1 <0>  0.1500
  23   H3       15.2061   -0.2924   25.9164    H 1 <0>  0.0000
  24   H4       13.9304    0.2712   26.9970    H 1 <0>  0.0000
  25   H5       16.4441    0.1548   27.9262    H 1 <0>  0.0000
  26   H6       17.0880    2.7960   27.4707    H 1 <0>  0.0000
  27   H7       13.8211    2.4288   26.0928    H 1 <0>  0.0000
  28   H8       18.8490    1.8078   26.4511    H 1 <0>  0.0000
  29   H9       17.8303    1.5497   25.0110    H 1 <0>  0.0000
  30  H10       14.5113    0.7562   19.7402    H 1 <0>  0.3999
  31  H11       12.7808    0.7696   20.0010    H 1 <0>  0.3999
  32  H12       15.8140    1.7556   29.3659    H 1 <0>  0.3999
@<TRIPOS>BOND
    1     1     2  1
    2     1     3  1
    3     2    11  1
    4     3    10  1
    5     3    12  1
    6     4    10  1
    7     4    11  1
    8     4    15  1
    9     5     6  1
   10     5     8  1
   11     6     7  1
   12     6    18  1
   13     7     9  1
   14     7    17  1
   15     8    11  1
   16     8    17  1
   17     9    19  1
   18    13    20  1
   19    14    20  1
   20    16    20  1
   21    19    20  1
   22     1    21  1
   23     2    22  1
   24     5    23  1
   25     5    24  1
   26     6    25  1
   27     7    26  1
   28     8    27  1
   29     9    28  1
   30     9    29  1
   31    12    30  1
   32    12    31  1
   33    18    32  1

@<TRIPOS>MOLECULE
MOL
   32   33    0    0    0
SMALL
USER_CHARGES


@<TRIPOS>ATOM
   1   C1       15.2911    1.1329   22.1713  C.2 1 <0> -0.1356
   2   C2       15.4533    1.3903   23.4675  C.2 1 <0> -0.0410
   3   C3       13.8895    0.9993   21.6954  C.2 1 <0>  0.4856
   4   C4       13.0644    1.3957   23.8532  C.2 1 <0>  0.8408
   5   C5       14.8797    0.5461   26.5428  C.3 1 <0>  0.0000
   6   C6       15.8888    0.9979   27.5732  C.3 1 <0>  0.2800
   7   C7       16.7283    2.0138   26.8111  C.3 1 <0>  0.2800
   8   C8       14.6625    1.8061   25.7209  C.3 1 <0>  0.5801
   9   C9       17.9106    1.3823   26.0876  C.3 1 <0>  0.2800
  10   N1       12.8739    1.1280   22.5084  N.2 1 <0> -0.6611
  11   N2       14.3875    1.5295   24.3413 N.am 1 <0> -0.4690
  12   N3       13.6783    0.7335   20.3624 N.pl3 1 <0> -0.8501
  13   O1       18.7676   -2.3524   26.1510  O.3 1 <0> -1.0332
  14   O2       20.3972   -0.3812   26.2318  O.3 1 <0> -1.0332
  15   O3       12.0952    1.5134   24.6052  O.2 1 <0> -0.5698
  16   O4       18.9314   -0.7527   24.1606  O.2 1 <0> -1.0332
  17   O5       15.8589    2.5918   25.8183  O.3 1 <0> -0.5601
  18   O6       15.2166    1.6380   28.6555  O.3 1 <0> -0.6802
  19   O7       17.9091   -0.0135   26.3390  O.3 1 <0> -0.5513
  20   P1       19.0969   -0.9440   25.6653  P.3 1 <0>  1.3711
  21   H1       16.1179    1.0231   21.4824    H 1 <0>  0.1500
  22   H2       16.4420    1.5037   23.8981    H 1 <0>  0.1500
  23   H3       15.2190   -0.3168   25.9588    H 1 <0>  0.0000
  24   H4       13.9464    0.2509   27.0409    H 1 <0>  0.0000
  25   H5       16.4676    0.1678   27.9533    H 1 <0>  0.0000
  26   H6       17.0862    2.8078   27.4574    H 1 <0>  0.0000
  27   H7       13.8127    2.3950   26.1085    H 1 <0>  0.0000
  28   H8       18.8490    1.8078   26.4511    H 1 <0>  0.0000
  29   H9       17.8303    1.5497   25.0110    H 1 <0>  0.0000
  30  H10       14.4711    0.6421   19.7742    H 1 <0>  0.3999
  31  H11       12.7425    0.6447   20.0474    H 1 <0>  0.3999
  32  H12       15.8346    1.7828   29.3758    H 1 <0>  0.3999
@<TRIPOS>BOND
    1     1     2  1
    2     1     3  1
    3     2    11  1
    4     3    10  1
    5     3    12  1
    6     4    10  1
    7     4    11  1
    8     4    15  1
    9     5     6  1
   10     5     8  1
   11     6     7  1
   12     6    18  1
   13     7     9  1
   14     7    17  1
   15     8    11  1
   16     8    17  1
   17     9    19  1
   18    13    20  1
   19    14    20  1
   20    16    20  1
   21    19    20  1
   22     1    21  1
   23     2    22  1
   24     5    23  1
   25     5    24  1
   26     6    25  1
   27     7    26  1
   28     8    27  1
   29     9    28  1
   30     9    29  1
   31    12    30  1
   32    12    31  1
   33    18    32  1

@<TRIPOS>MOLECULE
MOL
   32   33    0    0    0
SMALL
USER_CHARGES


@<TRIPOS>ATOM
   1   C1       15.2652    1.0582   22.1942  C.2 1 <0> -0.1356
   2   C2       15.4346    1.3345   23.4856  C.2 1 <0> -0.0410
   3   C3       13.8614    0.9065   21.7304  C.2 1 <0>  0.4856
   4   C4       13.0485    1.3255   23.8886  C.2 1 <0>  0.8408
   5   C5       14.8902    0.5275   26.5762  C.3 1 <0>  0.0000
   6   C6       15.9028    1.0014   27.5929  C.3 1 <0>  0.2800
   7   C7       16.7283    2.0138   26.8111  C.3 1 <0>  0.2800
   8   C8       14.6565    1.7743   25.7389  C.3 1 <0>  0.5801
   9   C9       17.9106    1.3823   26.0876  C.3 1 <0>  0.2800
  10   N1       12.8507    1.0380   22.5490  N.2 1 <0> -0.6611
  11   N2       14.3740    1.4768   24.3652 N.am 1 <0> -0.4690
  12   N3       13.6428    0.6210   20.4027 N.pl3 1 <0> -0.8501
  13   O1       18.7676   -2.3524   26.1510  O.3 1 <0> -1.0332
  14   O2       20.3972   -0.3812   26.2318  O.3 1 <0> -1.0332
  15   O3       12.0838    1.4453   24.6460  O.2 1 <0> -0.5698
  16   O4       18.9314   -0.7527   24.1606  O.2 1 <0> -1.0332
  17   O5       15.8470    2.5711   25.8169  O.3 1 <0> -0.5601
  18   O6       15.2330    1.6507   28.6714  O.3 1 <0> -0.6802
  19   O7       17.9091   -0.0135   26.3390  O.3 1 <0> -0.5513
  20   P1       19.0969   -0.9440   25.6653  P.3 1 <0>  1.3711
  21   H1       16.0880    0.9458   21.5009    H 1 <0>  0.1500
  22   H2       16.4254    1.4618   23.9074    H 1 <0>  0.1500
  23   H3       15.2324   -0.3405   26.0014    H 1 <0>  0.0000
  24   H4       13.9629    0.2313   27.0850    H 1 <0>  0.0000
  25   H5       16.4912    0.1814   27.9800    H 1 <0>  0.0000
  26   H6       17.0842    2.8195   27.4440    H 1 <0>  0.0000
  27   H7       13.8046    2.3614   26.1247    H 1 <0>  0.0000
  28   H8       18.8490    1.8078   26.4511    H 1 <0>  0.0000
  29   H9       17.8303    1.5497   25.0110    H 1 <0>  0.0000
  30  H10       14.4322    0.5281   19.8101    H 1 <0>  0.3999
  31  H11       12.7056    0.5202   20.0957    H 1 <0>  0.3999
  32  H12       15.8550    1.8103   29.3851    H 1 <0>  0.3999
@<TRIPOS>BOND
    1     1     2  1
    2     1     3  1
    3     2    11  1
    4     3    10  1
    5     3    12  1
    6     4    10  1
    7     4    11  1
    8     4    15  1
    9     5     6  1
   10     5     8  1
   11     6     7  1
   12     6    18  1
   13     7     9  1
   14     7    17  1
   15     8    11  1
   16     8    17  1
   17     9    19  1
   18    13    20  1
   19    14    20  1
   20    16    20  1
   21    19    20  1
   22     1    21  1
   23     2    22  1
   24     5    23  1
   25     5    24  1
   26     6    25  1
   27     7    26  1
   28     8    27  1
   29     9    28  1
   30     9    29  1
   31    12    30  1
   32    12    31  1
   33    18    32  1

@<TRIPOS>MOLECULE
MOL
   32   33    0    0    0
SMALL
USER_CHARGES


@<TRIPOS>ATOM
   1   C1       15.2401    0.9836   22.2183  C.2 1 <0> -0.1356
   2   C2       15.4164    1.2787   23.5047  C.2 1 <0> -0.0410
   3   C3       13.8343    0.8141   21.7669  C.2 1 <0>  0.4856
   4   C4       13.0335    1.2556   23.9251  C.2 1 <0>  0.8408
   5   C5       14.9010    0.5093   26.6097  C.3 1 <0>  0.0000
   6   C6       15.9169    1.0054   27.6125  C.3 1 <0>  0.2800
   7   C7       16.7283    2.0138   26.8111  C.3 1 <0>  0.2800
   8   C8       14.6509    1.7427   25.7574  C.3 1 <0>  0.5801
   9   C9       17.9106    1.3823   26.0876  C.3 1 <0>  0.2800
  10   N1       12.8284    0.9483   22.5909  N.2 1 <0> -0.6611
  11   N2       14.3610    1.4242   24.3899 N.am 1 <0> -0.4690
  12   N3       13.6086    0.5087   20.4448 N.pl3 1 <0> -0.8501
  13   O1       18.7676   -2.3524   26.1510  O.3 1 <0> -1.0332
  14   O2       20.3972   -0.3812   26.2318  O.3 1 <0> -1.0332
  15   O3       12.0733    1.3777   24.6878  O.2 1 <0> -0.5698
  16   O4       18.9314   -0.7527   24.1606  O.2 1 <0> -1.0332
  17   O5       15.8353    2.5503   25.8159  O.3 1 <0> -0.5601
  18   O6       15.2495    1.6636   28.6870  O.3 1 <0> -0.6802
  19   O7       17.9091   -0.0135   26.3390  O.3 1 <0> -0.5513
  20   P1       19.0969   -0.9440   25.6653  P.3 1 <0>  1.3711
  21   H1       16.0588    0.8686   21.5206    H 1 <0>  0.1500
  22   H2       16.4092    1.4200   23.9174    H 1 <0>  0.1500
  23   H3       15.2463   -0.3635   26.0442    H 1 <0>  0.0000
  24   H4       13.9799    0.2125   27.1292    H 1 <0>  0.0000
  25   H5       16.5149    0.1956   28.0063    H 1 <0>  0.0000
  26   H6       17.0820    2.8309   27.4304    H 1 <0>  0.0000
  27   H7       13.7970    2.3279   26.1414    H 1 <0>  0.0000
  28   H8       18.8490    1.8078   26.4511    H 1 <0>  0.0000
  29   H9       17.8303    1.5497   25.0110    H 1 <0>  0.0000
  30  H10       14.3944    0.4143   19.8477    H 1 <0>  0.3999
  31  H11       12.6701    0.3961   20.1460    H 1 <0>  0.3999
  32  H12       15.8752    1.8380   29.3939    H 1 <0>  0.3999
@<TRIPOS>BOND
    1     1     2  1
    2     1     3  1
    3     2    11  1
    4     3    10  1
    5     3    12  1
    6     4    10  1
    7     4    11  1
    8     4    15  1
    9     5     6  1
   10     5     8  1
   11     6     7  1
   12     6    18  1
   13     7     9  1
   14     7    17  1
   15     8    11  1
   16     8    17  1
   17     9    19  1
   18    13    20  1
   19    14    20  1
   20    16    20  1
   21    19    20  1
   22     1    21  1
   23     2    22  1
   24     5    23  1
   25     5    24  1
   26     6    25  1
   27     7    26  1
   28     8    27  1
   29     9    28  1
   30     9    29  1
   31    12    30  1
   32    12    31  1
   33    18    32  1

@<TRIPOS>MOLECULE
MOL
   32   33    0    0    0
SMALL
USER_CHARGES


@<TRIPOS>ATOM
   1   C1       15.2158    0.9091   22.2436  C.2 1 <0> -0.1356
   2   C2       15.3989    1.2231   23.5245  C.2 1 <0> -0.0410
   3   C3       13.8083    0.7219   21.8048  C.2 1 <0>  0.4856
   4   C4       13.0193    1.1860   23.9627  C.2 1 <0>  0.8408
   5   C5       14.9122    0.4917   26.6434  C.3 1 <0>  0.0000
   6   C6       15.9311    1.0097   27.6320  C.3 1 <0>  0.2800
   7   C7       16.7283    2.0138   26.8111  C.3 1 <0>  0.2800
   8   C8       14.6457    1.7113   25.7763  C.3 1 <0>  0.5801
   9   C9       17.9106    1.3823   26.0876  C.3 1 <0>  0.2800
  10   N1       12.8073    0.8590   22.6343  N.2 1 <0> -0.6611
  11   N2       14.3487    1.3719   24.4154 N.am 1 <0> -0.4690
  12   N3       13.5757    0.3968   20.4886 N.pl3 1 <0> -0.8501
  13   O1       18.7676   -2.3524   26.1510  O.3 1 <0> -1.0332
  14   O2       20.3972   -0.3812   26.2318  O.3 1 <0> -1.0332
  15   O3       12.0636    1.3106   24.7306  O.2 1 <0> -0.5698
  16   O4       18.9314   -0.7527   24.1606  O.2 1 <0> -1.0332
  17   O5       15.8237    2.5293   25.8153  O.3 1 <0> -0.5601
  18   O6       15.2660    1.6770   28.7023  O.3 1 <0> -0.6802
  19   O7       17.9091   -0.0135   26.3390  O.3 1 <0> -0.5513
  20   P1       19.0969   -0.9440   25.6653  P.3 1 <0>  1.3711
  21   H1       16.0304    0.7914   21.5416    H 1 <0>  0.1500
  22   H2       16.3934    1.3781   23.9281    H 1 <0>  0.1500
  23   H3       15.2607   -0.3858   26.0872    H 1 <0>  0.0000
  24   H4       13.9974    0.1944   27.1736    H 1 <0>  0.0000
  25   H5       16.5387    0.2103   28.0323    H 1 <0>  0.0000
  26   H6       17.0796    2.8421   27.4168    H 1 <0>  0.0000
  27   H7       13.7897    2.2947   26.1586    H 1 <0>  0.0000
  28   H8       18.8490    1.8078   26.4511    H 1 <0>  0.0000
  29   H9       17.8303    1.5497   25.0110    H 1 <0>  0.0000
  30  H10       14.3579    0.3007   19.8872    H 1 <0>  0.3999
  31  H11       12.6360    0.2724   20.1983    H 1 <0>  0.3999
  32  H12       15.8953    1.8661   29.4022    H 1 <0>  0.3999
@<TRIPOS>BOND
    1     1     2  1
    2     1     3  1
    3     2    11  1
    4     3    10  1
    5     3    12  1
    6     4    10  1
    7     4    11  1
    8     4    15  1
    9     5     6  1
   10     5     8  1
   11     6     7  1
   12     6    18  1
   13     7     9  1
   14     7    17  1
   15     8    11  1
   16     8    17  1
   17     9    19  1
   18    13    20  1
   19    14    20  1
   20    16    20  1
   21    19    20  1
   22     1    21  1
   23     2    22  1
   24     5    23  1
   25     5    24  1
   26     6    25  1
   27     7    26  1
   28     8    27  1
   29     9    28  1
   30     9    29  1
   31    12    30  1
   32    12    31  1
   33    18    32  1

@<TRIPOS>MOLECULE
MOL
   32   33    0    0    0
SMALL
USER_CHARGES


@<TRIPOS>ATOM
   1   C1       15.1923    0.8347   22.2701  C.2 1 <0> -0.1356
   2   C2       15.3820    1.1676   23.5453  C.2 1 <0> -0.0410
   3   C3       13.7833    0.6300   21.8441  C.2 1 <0>  0.4856
   4   C4       13.0060    1.1169   24.0012  C.2 1 <0>  0.8408
   5   C5       14.9238    0.4747   26.6772  C.3 1 <0>  0.0000
   6   C6       15.9455    1.0144   27.6513  C.3 1 <0>  0.2800
   7   C7       16.7283    2.0138   26.8111  C.3 1 <0>  0.2800
   8   C8       14.6410    1.6802   25.7957  C.3 1 <0>  0.5801
   9   C9       17.9106    1.3823   26.0876  C.3 1 <0>  0.2800
  10   N1       12.7871    0.7701   22.6790  N.2 1 <0> -0.6611
  11   N2       14.3370    1.3199   24.4417 N.am 1 <0> -0.4690
  12   N3       13.5439    0.2851   20.5342 N.pl3 1 <0> -0.8501
  13   O1       18.7676   -2.3524   26.1510  O.3 1 <0> -1.0332
  14   O2       20.3972   -0.3812   26.2318  O.3 1 <0> -1.0332
  15   O3       12.0548    1.2440   24.7744  O.2 1 <0> -0.5698
  16   O4       18.9314   -0.7527   24.1606  O.2 1 <0> -1.0332
  17   O5       15.8123    2.5083   25.8151  O.3 1 <0> -0.5601
  18   O6       15.2825    1.6906   28.7173  O.3 1 <0> -0.6802
  19   O7       17.9091   -0.0135   26.3390  O.3 1 <0> -0.5513
  20   P1       19.0969   -0.9440   25.6653  P.3 1 <0>  1.3711
  21   H1       16.0028    0.7142   21.5639    H 1 <0>  0.1500
  22   H2       16.3780    1.3363   23.9395    H 1 <0>  0.1500
  23   H3       15.2756   -0.4075   26.1305    H 1 <0>  0.0000
  24   H4       14.0153    0.1770   27.2180    H 1 <0>  0.0000
  25   H5       16.5625    0.2255   28.0580    H 1 <0>  0.0000
  26   H6       17.0770    2.8531   27.4029    H 1 <0>  0.0000
  27   H7       13.7829    2.2615   26.1763    H 1 <0>  0.0000
  28   H8       18.8490    1.8078   26.4511    H 1 <0>  0.0000
  29   H9       17.8303    1.5497   25.0110    H 1 <0>  0.0000
  30  H10       14.3226    0.1874   19.9284    H 1 <0>  0.3999
  31  H11       12.6033    0.1491   20.2524    H 1 <0>  0.3999
  32  H12       15.9151    1.8944   29.4100    H 1 <0>  0.3999
@<TRIPOS>BOND
    1     1     2  1
    2     1     3  1
    3     2    11  1
    4     3    10  1
    5     3    12  1
    6     4    10  1
    7     4    11  1
    8     4    15  1
    9     5     6  1
   10     5     8  1
   11     6     7  1
   12     6    18  1
   13     7     9  1
   14     7    17  1
   15     8    11  1
   16     8    17  1
   17     9    19  1
   18    13    20  1
   19    14    20  1
   20    16    20  1
   21    19    20  1
   22     1    21  1
   23     2    22  1
   24     5    23  1
   25     5    24  1
   26     6    25  1
   27     7    26  1
   28     8    27  1
   29     9    28  1
   30     9    29  1
   31    12    30  1
   32    12    31  1
   33    18    32  1

@<TRIPOS>MOLECULE
MOL
   32   33    0    0    0
SMALL
USER_CHARGES


@<TRIPOS>ATOM
   1   C1       15.1697    0.7606   22.2978  C.2 1 <0> -0.1356
   2   C2       15.3657    1.1123   23.5670  C.2 1 <0> -0.0410
   3   C3       13.7593    0.5385   21.8849  C.2 1 <0>  0.4856
   4   C4       12.9935    1.0482   24.0408  C.2 1 <0>  0.8408
   5   C5       14.9358    0.4582   26.7112  C.3 1 <0>  0.0000
   6   C6       15.9599    1.0195   27.6704  C.3 1 <0>  0.2800
   7   C7       16.7283    2.0138   26.8111  C.3 1 <0>  0.2800
   8   C8       14.6366    1.6492   25.8155  C.3 1 <0>  0.5801
   9   C9       17.9106    1.3823   26.0876  C.3 1 <0>  0.2800
  10   N1       12.7681    0.6817   22.7250  N.2 1 <0> -0.6611
  11   N2       14.3259    1.2681   24.4688 N.am 1 <0> -0.4690
  12   N3       13.5135    0.1739   20.5815 N.pl3 1 <0> -0.8501
  13   O1       18.7676   -2.3524   26.1510  O.3 1 <0> -1.0332
  14   O2       20.3972   -0.3812   26.2318  O.3 1 <0> -1.0332
  15   O3       12.0469    1.1779   24.8191  O.2 1 <0> -0.5698
  16   O4       18.9314   -0.7527   24.1606  O.2 1 <0> -1.0332
  17   O5       15.8011    2.4871   25.8152  O.3 1 <0> -0.5601
  18   O6       15.2989    1.7046   28.7319  O.3 1 <0> -0.6802
  19   O7       17.9091   -0.0135   26.3390  O.3 1 <0> -0.5513
  20   P1       19.0969   -0.9440   25.6653  P.3 1 <0>  1.3711
  21   H1       15.9760    0.6372   21.5873    H 1 <0>  0.1500
  22   H2       16.3630    1.2945   23.9515    H 1 <0>  0.1500
  23   H3       15.2910   -0.4284   26.1739    H 1 <0>  0.0000
  24   H4       14.0337    0.1604   27.2626    H 1 <0>  0.0000
  25   H5       16.5864    0.2413   28.0832    H 1 <0>  0.0000
  26   H6       17.0742    2.8639   27.3890    H 1 <0>  0.0000
  27   H7       13.7764    2.2286   26.1945    H 1 <0>  0.0000
  28   H8       18.8490    1.8078   26.4511    H 1 <0>  0.0000
  29   H9       17.8303    1.5497   25.0110    H 1 <0>  0.0000
  30  H10       14.2886    0.0744   19.9715    H 1 <0>  0.3999
  31  H11       12.5720    0.0263   20.3085    H 1 <0>  0.3999
  32  H12       15.9348    1.9230   29.4172    H 1 <0>  0.3999
@<TRIPOS>BOND
    1     1     2  1
    2     1     3  1
    3     2    11  1
    4     3    10  1
    5     3    12  1
    6     4    10  1
    7     4    11  1
    8     4    15  1
    9     5     6  1
   10     5     8  1
   11     6     7  1
   12     6    18  1
   13     7     9  1
   14     7    17  1
   15     8    11  1
   16     8    17  1
   17     9    19  1
   18    13    20  1
   19    14    20  1
   20    16    20  1
   21    19    20  1
   22     1    21  1
   23     2    22  1
   24     5    23  1
   25     5    24  1
   26     6    25  1
   27     7    26  1
   28     8    27  1
   29     9    28  1
   30     9    29  1
   31    12    30  1
   32    12    31  1
   33    18    32  1

@<TRIPOS>MOLECULE
MOL
   32   33    0    0    0
SMALL
USER_CHARGES


@<TRIPOS>ATOM
   1   C1       15.1478    0.6866   22.3267  C.2 1 <0> -0.1356
   2   C2       15.3500    1.0572   23.5895  C.2 1 <0> -0.0410
   3   C3       13.7364    0.4473   21.9271  C.2 1 <0>  0.4856
   4   C4       12.9819    0.9799   24.0814  C.2 1 <0>  0.8408
   5   C5       14.9481    0.4422   26.7453  C.3 1 <0>  0.0000
   6   C6       15.9744    1.0249   27.6893  C.3 1 <0>  0.2800
   7   C7       16.7283    2.0138   26.8111  C.3 1 <0>  0.2800
   8   C8       14.6326    1.6185   25.8358  C.3 1 <0>  0.5801
   9   C9       17.9106    1.3823   26.0876  C.3 1 <0>  0.2800
  10   N1       12.7501    0.5937   22.7724  N.2 1 <0> -0.6611
  11   N2       14.3155    1.2166   24.4967 N.am 1 <0> -0.4690
  12   N3       13.4843    0.0631   20.6306 N.pl3 1 <0> -0.8501
  13   O1       18.7676   -2.3524   26.1510  O.3 1 <0> -1.0332
  14   O2       20.3972   -0.3812   26.2318  O.3 1 <0> -1.0332
  15   O3       12.0399    1.1124   24.8647  O.2 1 <0> -0.5698
  16   O4       18.9314   -0.7527   24.1606  O.2 1 <0> -1.0332
  17   O5       15.7901    2.4659   25.8157  O.3 1 <0> -0.5601
  18   O6       15.3154    1.7190   28.7463  O.3 1 <0> -0.6802
  19   O7       17.9091   -0.0135   26.3390  O.3 1 <0> -0.5513
  20   P1       19.0969   -0.9440   25.6653  P.3 1 <0>  1.3711
  21   H1       15.9500    0.5602   21.6120    H 1 <0>  0.1500
  22   H2       16.3485    1.2528   23.9642    H 1 <0>  0.1500
  23   H3       15.3069   -0.4486   26.2174    H 1 <0>  0.0000
  24   H4       14.0526    0.1446   27.3072    H 1 <0>  0.0000
  25   H5       16.6103    0.2576   28.1080    H 1 <0>  0.0000
  26   H6       17.0713    2.8745   27.3749    H 1 <0>  0.0000
  27   H7       13.7704    2.1959   26.2132    H 1 <0>  0.0000
  28   H8       18.8490    1.8078   26.4511    H 1 <0>  0.0000
  29   H9       17.8303    1.5497   25.0110    H 1 <0>  0.0000
  30  H10       14.2558   -0.0383   20.0163    H 1 <0>  0.3999
  31  H11       12.5421   -0.0960   20.3664    H 1 <0>  0.3999
  32  H12       15.9544    1.9519   29.4239    H 1 <0>  0.3999
@<TRIPOS>BOND
    1     1     2  1
    2     1     3  1
    3     2    11  1
    4     3    10  1
    5     3    12  1
    6     4    10  1
    7     4    11  1
    8     4    15  1
    9     5     6  1
   10     5     8  1
   11     6     7  1
   12     6    18  1
   13     7     9  1
   14     7    17  1
   15     8    11  1
   16     8    17  1
   17     9    19  1
   18    13    20  1
   19    14    20  1
   20    16    20  1
   21    19    20  1
   22     1    21  1
   23     2    22  1
   24     5    23  1
   25     5    24  1
   26     6    25  1
   27     7    26  1
   28     8    27  1
   29     9    28  1
   30     9    29  1
   31    12    30  1
   32    12    31  1
   33    18    32  1

@<TRIPOS>MOLECULE
MOL
   32   33    0    0    0
SMALL
USER_CHARGES


@<TRIPOS>ATOM
   1   C1       15.1268    0.6129   22.3566  C.2 1 <0> -0.1356
   2   C2       15.3349    1.0022   23.6128  C.2 1 <0> -0.0410
   3   C3       13.7146    0.3566   21.9706  C.2 1 <0>  0.4856
   4   C4       12.9712    0.9121   24.1231  C.2 1 <0>  0.8408
   5   C5       14.9609    0.4269   26.7795  C.3 1 <0>  0.0000
   6   C6       15.9890    1.0308   27.7081  C.3 1 <0>  0.2800
   7   C7       16.7283    2.0138   26.8111  C.3 1 <0>  0.2800
   8   C8       14.6290    1.5880   25.8566  C.3 1 <0>  0.5801
   9   C9       17.9106    1.3823   26.0876  C.3 1 <0>  0.2800
  10   N1       12.7332    0.5063   22.8210  N.2 1 <0> -0.6611
  11   N2       14.3057    1.1654   24.5253 N.am 1 <0> -0.4690
  12   N3       13.4564   -0.0473   20.6813 N.pl3 1 <0> -0.8501
  13   O1       18.7676   -2.3524   26.1510  O.3 1 <0> -1.0332
  14   O2       20.3972   -0.3812   26.2318  O.3 1 <0> -1.0332
  15   O3       12.0337    1.0475   24.9113  O.2 1 <0> -0.5698
  16   O4       18.9314   -0.7527   24.1606  O.2 1 <0> -1.0332
  17   O5       15.7792    2.4446   25.8165  O.3 1 <0> -0.5601
  18   O6       15.3318    1.7336   28.7604  O.3 1 <0> -0.6802
  19   O7       17.9091   -0.0135   26.3390  O.3 1 <0> -0.5513
  20   P1       19.0969   -0.9440   25.6653  P.3 1 <0>  1.3711
  21   H1       15.9249    0.4834   21.6380    H 1 <0>  0.1500
  22   H2       16.3345    1.2111   23.9776    H 1 <0>  0.1500
  23   H3       15.3232   -0.4680   26.2611    H 1 <0>  0.0000
  24   H4       14.0719    0.1295   27.3520    H 1 <0>  0.0000
  25   H5       16.6342    0.2745   28.1325    H 1 <0>  0.0000
  26   H6       17.0681    2.8849   27.3607    H 1 <0>  0.0000
  27   H7       13.7648    2.1634   26.2324    H 1 <0>  0.0000
  28   H8       18.8490    1.8078   26.4511    H 1 <0>  0.0000
  29   H9       17.8303    1.5497   25.0110    H 1 <0>  0.0000
  30  H10       14.2243   -0.1507   20.0629    H 1 <0>  0.3999
  31  H11       12.5137   -0.2177   20.4262    H 1 <0>  0.3999
  32  H12       15.9737    1.9810   29.4301    H 1 <0>  0.3999
@<TRIPOS>BOND
    1     1     2  1
    2     1     3  1
    3     2    11  1
    4     3    10  1
    5     3    12  1
    6     4    10  1
    7     4    11  1
    8     4    15  1
    9     5     6  1
   10     5     8  1
   11     6     7  1
   12     6    18  1
   13     7     9  1
   14     7    17  1
   15     8    11  1
   16     8    17  1
   17     9    19  1
   18    13    20  1
   19    14    20  1
   20    16    20  1
   21    19    20  1
   22     1    21  1
   23     2    22  1
   24     5    23  1
   25     5    24  1
   26     6    25  1
   27     7    26  1
   28     8    27  1
   29     9    28  1
   30     9    29  1
   31    12    30  1
   32    12    31  1
   33    18    32  1

@<TRIPOS>MOLECULE
MOL
   32   33    0    0    0
SMALL
USER_CHARGES


@<TRIPOS>ATOM
   1   C1       15.1066    0.5394   22.3878  C.2 1 <0> -0.1356
   2   C2       15.3205    0.9474   23.6370  C.2 1 <0> -0.0410
   3   C3       13.6939    0.2662   22.0156  C.2 1 <0>  0.4856
   4   C4       12.9613    0.8448   24.1657  C.2 1 <0>  0.8408
   5   C5       14.9740    0.4121   26.8139  C.3 1 <0>  0.0000
   6   C6       16.0037    1.0370   27.7267  C.3 1 <0>  0.2800
   7   C7       16.7283    2.0138   26.8111  C.3 1 <0>  0.2800
   8   C8       14.6258    1.5578   25.8778  C.3 1 <0>  0.5801
   9   C9       17.9106    1.3823   26.0876  C.3 1 <0>  0.2800
  10   N1       12.7173    0.4194   22.8710  N.2 1 <0> -0.6611
  11   N2       14.2965    1.1145   24.5547 N.am 1 <0> -0.4690
  12   N3       13.4298   -0.1573   20.7338 N.pl3 1 <0> -0.8501
  13   O1       18.7676   -2.3524   26.1510  O.3 1 <0> -1.0332
  14   O2       20.3972   -0.3812   26.2318  O.3 1 <0> -1.0332
  15   O3       12.0284    0.9831   24.9589  O.2 1 <0> -0.5698
  16   O4       18.9314   -0.7527   24.1606  O.2 1 <0> -1.0332
  17   O5       15.7685    2.4232   25.8177  O.3 1 <0> -0.5601
  18   O6       15.3482    1.7486   28.7741  O.3 1 <0> -0.6802
  19   O7       17.9091   -0.0135   26.3390  O.3 1 <0> -0.5513
  20   P1       19.0969   -0.9440   25.6653  P.3 1 <0>  1.3711
  21   H1       15.9006    0.4068   21.6651    H 1 <0>  0.1500
  22   H2       16.3208    1.1695   23.9917    H 1 <0>  0.1500
  23   H3       15.3400   -0.4868   26.3050    H 1 <0>  0.0000
  24   H4       14.0916    0.1152   27.3967    H 1 <0>  0.0000
  25   H5       16.6582    0.2919   28.1565    H 1 <0>  0.0000
  26   H6       17.0648    2.8950   27.3464    H 1 <0>  0.0000
  27   H7       13.7595    2.1311   26.2520    H 1 <0>  0.0000
  28   H8       18.8490    1.8078   26.4511    H 1 <0>  0.0000
  29   H9       17.8303    1.5497   25.0110    H 1 <0>  0.0000
  30  H10       14.1940   -0.2627   20.1112    H 1 <0>  0.3999
  31  H11       12.4867   -0.3389   20.4879    H 1 <0>  0.3999
  32  H12       15.9928    2.0103   29.4357    H 1 <0>  0.3999
@<TRIPOS>BOND
    1     1     2  1
    2     1     3  1
    3     2    11  1
    4     3    10  1
    5     3    12  1
    6     4    10  1
    7     4    11  1
    8     4    15  1
    9     5     6  1
   10     5     8  1
   11     6     7  1
   12     6    18  1
   13     7     9  1
   14     7    17  1
   15     8    11  1
   16     8    17  1
   17     9    19  1
   18    13    20  1
   19    14    20  1
   20    16    20  1
   21    19    20  1
   22     1    21  1
   23     2    22  1
   24     5    23  1
   25     5    24  1
   26     6    25  1
   27     7    26  1
   28     8    27  1
   29     9    28  1
   30     9    29  1
   31    12    30  1
   32    12    31  1
   33    18    32  1

@<TRIPOS>MOLECULE
MOL
   32   33    0    0    0
SMALL
USER_CHARGES


@<TRIPOS>ATOM
   1   C1       15.0872    0.4661   22.4201  C.2 1 <0> -0.1356
   2   C2       15.3067    0.8928   23.6621  C.2 1 <0> -0.0410
   3   C3       13.6742    0.1763   22.0619  C.2 1 <0>  0.4856
   4   C4       12.9523    0.7780   24.2092  C.2 1 <0>  0.8408
   5   C5       14.9875    0.3978   26.8483  C.3 1 <0>  0.0000
   6   C6       16.0184    1.0436   27.7450  C.3 1 <0>  0.2800
   7   C7       16.7283    2.0138   26.8111  C.3 1 <0>  0.2800
   8   C8       14.6231    1.5279   25.8994  C.3 1 <0>  0.5801
   9   C9       17.9106    1.3823   26.0876  C.3 1 <0>  0.2800
  10   N1       12.7026    0.3331   22.9223  N.2 1 <0> -0.6611
  11   N2       14.2879    1.0639   24.5849 N.am 1 <0> -0.4690
  12   N3       13.4044   -0.2667   20.7879 N.pl3 1 <0> -0.8501
  13   O1       18.7676   -2.3524   26.1510  O.3 1 <0> -1.0332
  14   O2       20.3972   -0.3812   26.2318  O.3 1 <0> -1.0332
  15   O3       12.0240    0.9194   25.0073  O.2 1 <0> -0.5698
  16   O4       18.9314   -0.7527   24.1606  O.2 1 <0> -1.0332
  17   O5       15.7580    2.4018   25.8193  O.3 1 <0> -0.5601
  18   O6       15.3646    1.7639   28.7875  O.3 1 <0> -0.6802
  19   O7       17.9091   -0.0135   26.3390  O.3 1 <0> -0.5513
  20   P1       19.0969   -0.9440   25.6653  P.3 1 <0>  1.3711
  21   H1       15.8771    0.3303   21.6935    H 1 <0>  0.1500
  22   H2       16.3077    1.1279   24.0064    H 1 <0>  0.1500
  23   H3       15.3573   -0.5047   26.3490    H 1 <0>  0.0000
  24   H4       14.1118    0.1016   27.4416    H 1 <0>  0.0000
  25   H5       16.6823    0.3098   28.1801    H 1 <0>  0.0000
  26   H6       17.0613    2.9050   27.3319    H 1 <0>  0.0000
  27   H7       13.7547    2.0990   26.2721    H 1 <0>  0.0000
  28   H8       18.8490    1.8078   26.4511    H 1 <0>  0.0000
  29   H9       17.8303    1.5497   25.0110    H 1 <0>  0.0000
  30  H10       14.1651   -0.3743   20.1612    H 1 <0>  0.3999
  31  H11       12.4612   -0.4594   20.5514    H 1 <0>  0.3999
  32  H12       16.0117    2.0399   29.4408    H 1 <0>  0.3999
@<TRIPOS>BOND
    1     1     2  1
    2     1     3  1
    3     2    11  1
    4     3    10  1
    5     3    12  1
    6     4    10  1
    7     4    11  1
    8     4    15  1
    9     5     6  1
   10     5     8  1
   11     6     7  1
   12     6    18  1
   13     7     9  1
   14     7    17  1
   15     8    11  1
   16     8    17  1
   17     9    19  1
   18    13    20  1
   19    14    20  1
   20    16    20  1
   21    19    20  1
   22     1    21  1
   23     2    22  1
   24     5    23  1
   25     5    24  1
   26     6    25  1
   27     7    26  1
   28     8    27  1
   29     9    28  1
   30     9    29  1
   31    12    30  1
   32    12    31  1
   33    18    32  1

@<TRIPOS>MOLECULE
MOL
   32   33    0    0    0
SMALL
USER_CHARGES


@<TRIPOS>ATOM
   1   C1       15.0687    0.3932   22.4535  C.2 1 <0> -0.1356
   2   C2       15.2935    0.8385   23.6880  C.2 1 <0> -0.0410
   3   C3       13.6556    0.0869   22.1096  C.2 1 <0>  0.4856
   4   C4       12.9441    0.7117   24.2538  C.2 1 <0>  0.8408
   5   C5       15.0013    0.3842   26.8828  C.3 1 <0>  0.0000
   6   C6       16.0333    1.0505   27.7632  C.3 1 <0>  0.2800
   7   C7       16.7283    2.0138   26.8111  C.3 1 <0>  0.2800
   8   C8       14.6207    1.4982   25.9214  C.3 1 <0>  0.5801
   9   C9       17.9106    1.3823   26.0876  C.3 1 <0>  0.2800
  10   N1       12.6889    0.2473   22.9748  N.2 1 <0> -0.6611
  11   N2       14.2800    1.0137   24.6158 N.am 1 <0> -0.4690
  12   N3       13.3804   -0.3756   20.8437 N.pl3 1 <0> -0.8501
  13   O1       18.7676   -2.3524   26.1510  O.3 1 <0> -1.0332
  14   O2       20.3972   -0.3812   26.2318  O.3 1 <0> -1.0332
  15   O3       12.0204    0.8562   25.0566  O.2 1 <0> -0.5698
  16   O4       18.9314   -0.7527   24.1606  O.2 1 <0> -1.0332
  17   O5       15.7477    2.3803   25.8212  O.3 1 <0> -0.5601
  18   O6       15.3810    1.7796   28.8006  O.3 1 <0> -0.6802
  19   O7       17.9091   -0.0135   26.3390  O.3 1 <0> -0.5513
  20   P1       19.0969   -0.9440   25.6653  P.3 1 <0>  1.3711
  21   H1       15.8544    0.2540   21.7231    H 1 <0>  0.1500
  22   H2       16.2949    1.0865   24.0218    H 1 <0>  0.1500
  23   H3       15.3751   -0.5220   26.3931    H 1 <0>  0.0000
  24   H4       14.1325    0.0889   27.4864    H 1 <0>  0.0000
  25   H5       16.7063    0.3282   28.2034    H 1 <0>  0.0000
  26   H6       17.0576    2.9147   27.3174    H 1 <0>  0.0000
  27   H7       13.7503    2.0672   26.2927    H 1 <0>  0.0000
  28   H8       18.8490    1.8078   26.4511    H 1 <0>  0.0000
  29   H9       17.8303    1.5497   25.0110    H 1 <0>  0.0000
  30  H10       14.1374   -0.4854   20.2130    H 1 <0>  0.3999
  31  H11       12.4371   -0.5792   20.6167    H 1 <0>  0.3999
  32  H12       16.0304    2.0697   29.4454    H 1 <0>  0.3999
@<TRIPOS>BOND
    1     1     2  1
    2     1     3  1
    3     2    11  1
    4     3    10  1
    5     3    12  1
    6     4    10  1
    7     4    11  1
    8     4    15  1
    9     5     6  1
   10     5     8  1
   11     6     7  1
   12     6    18  1
   13     7     9  1
   14     7    17  1
   15     8    11  1
   16     8    17  1
   17     9    19  1
   18    13    20  1
   19    14    20  1
   20    16    20  1
   21    19    20  1
   22     1    21  1
   23     2    22  1
   24     5    23  1
   25     5    24  1
   26     6    25  1
   27     7    26  1
   28     8    27  1
   29     9    28  1
   30     9    29  1
   31    12    30  1
   32    12    31  1
   33    18    32  1

@<TRIPOS>MOLECULE
MOL
   32   33    0    0    0
SMALL
USER_CHARGES


@<TRIPOS>ATOM
   1   C1       15.0510    0.3206   22.4880  C.2 1 <0> -0.1356
   2   C2       15.2810    0.7844   23.7147  C.2 1 <0> -0.0410
   3   C3       13.6381   -0.0020   22.1586  C.2 1 <0>  0.4856
   4   C4       12.9369    0.6460   24.2993  C.2 1 <0>  0.8408
   5   C5       15.0155    0.3712   26.9174  C.3 1 <0>  0.0000
   6   C6       16.0482    1.0578   27.7812  C.3 1 <0>  0.2800
   7   C7       16.7283    2.0138   26.8111  C.3 1 <0>  0.2800
   8   C8       14.6187    1.4688   25.9438  C.3 1 <0>  0.5801
   9   C9       17.9106    1.3823   26.0876  C.3 1 <0>  0.2800
  10   N1       12.6764    0.1621   23.0286  N.2 1 <0> -0.6611
  11   N2       14.2727    0.9639   24.6474 N.am 1 <0> -0.4690
  12   N3       13.3577   -0.4839   20.9011 N.pl3 1 <0> -0.8501
  13   O1       18.7676   -2.3524   26.1510  O.3 1 <0> -1.0332
  14   O2       20.3972   -0.3812   26.2318  O.3 1 <0> -1.0332
  15   O3       12.0178    0.7938   25.1068  O.2 1 <0> -0.5698
  16   O4       18.9314   -0.7527   24.1606  O.2 1 <0> -1.0332
  17   O5       15.7376    2.3587   25.8236  O.3 1 <0> -0.5601
  18   O6       15.3973    1.7955   28.8134  O.3 1 <0> -0.6802
  19   O7       17.9091   -0.0135   26.3390  O.3 1 <0> -0.5513
  20   P1       19.0969   -0.9440   25.6653  P.3 1 <0>  1.3711
  21   H1       15.8326    0.1779   21.7538    H 1 <0>  0.1500
  22   H2       16.2827    1.0452   24.0378    H 1 <0>  0.1500
  23   H3       15.3933   -0.5385   26.4373    H 1 <0>  0.0000
  24   H4       14.1535    0.0769   27.5313    H 1 <0>  0.0000
  25   H5       16.7304    0.3471   28.2261    H 1 <0>  0.0000
  26   H6       17.0537    2.9241   27.3028    H 1 <0>  0.0000
  27   H7       13.7463    2.0356   26.3138    H 1 <0>  0.0000
  28   H8       18.8490    1.8078   26.4511    H 1 <0>  0.0000
  29   H9       17.8303    1.5497   25.0110    H 1 <0>  0.0000
  30  H10       14.1110   -0.5960   20.2664    H 1 <0>  0.3999
  31  H11       12.4145   -0.6984   20.6837    H 1 <0>  0.3999
  32  H12       16.0489    2.0997   29.4494    H 1 <0>  0.3999
@<TRIPOS>BOND
    1     1     2  1
    2     1     3  1
    3     2    11  1
    4     3    10  1
    5     3    12  1
    6     4    10  1
    7     4    11  1
    8     4    15  1
    9     5     6  1
   10     5     8  1
   11     6     7  1
   12     6    18  1
   13     7     9  1
   14     7    17  1
   15     8    11  1
   16     8    17  1
   17     9    19  1
   18    13    20  1
   19    14    20  1
   20    16    20  1
   21    19    20  1
   22     1    21  1
   23     2    22  1
   24     5    23  1
   25     5    24  1
   26     6    25  1
   27     7    26  1
   28     8    27  1
   29     9    28  1
   30     9    29  1
   31    12    30  1
   32    12    31  1
   33    18    32  1

@<TRIPOS>MOLECULE
MOL
   32   33    0    0    0
SMALL
USER_CHARGES


@<TRIPOS>ATOM
   1   C1       15.0342    0.2483   22.5236  C.2 1 <0> -0.1356
   2   C2       15.2691    0.7306   23.7422  C.2 1 <0> -0.0410
   3   C3       13.6217   -0.0904   22.2089  C.2 1 <0>  0.4856
   4   C4       12.9305    0.5808   24.3457  C.2 1 <0>  0.8408
   5   C5       15.0301    0.3587   26.9521  C.3 1 <0>  0.0000
   6   C6       16.0631    1.0655   27.7990  C.3 1 <0>  0.2800
   7   C7       16.7283    2.0138   26.8111  C.3 1 <0>  0.2800
   8   C8       14.6172    1.4398   25.9667  C.3 1 <0>  0.5801
   9   C9       17.9106    1.3823   26.0876  C.3 1 <0>  0.2800
  10   N1       12.6649    0.0776   23.0836  N.2 1 <0> -0.6611
  11   N2       14.2661    0.9144   24.6797 N.am 1 <0> -0.4690
  12   N3       13.3363   -0.5916   20.9601 N.pl3 1 <0> -0.8501
  13   O1       18.7676   -2.3524   26.1510  O.3 1 <0> -1.0332
  14   O2       20.3972   -0.3812   26.2318  O.3 1 <0> -1.0332
  15   O3       12.0160    0.7320   25.1578  O.2 1 <0> -0.5698
  16   O4       18.9314   -0.7527   24.1606  O.2 1 <0> -1.0332
  17   O5       15.7277    2.3371   25.8262  O.3 1 <0> -0.5601
  18   O6       15.4136    1.8118   28.8258  O.3 1 <0> -0.6802
  19   O7       17.9091   -0.0135   26.3390  O.3 1 <0> -0.5513
  20   P1       19.0969   -0.9440   25.6653  P.3 1 <0>  1.3711
  21   H1       15.8117    0.1021   21.7858    H 1 <0>  0.1500
  22   H2       16.2709    1.0040   24.0545    H 1 <0>  0.1500
  23   H3       15.4120   -0.5543   26.4815    H 1 <0>  0.0000
  24   H4       14.1750    0.0657   27.5761    H 1 <0>  0.0000
  25   H5       16.7544    0.3666   28.2485    H 1 <0>  0.0000
  26   H6       17.0496    2.9334   27.2880    H 1 <0>  0.0000
  27   H7       13.7428    2.0043   26.3353    H 1 <0>  0.0000
  28   H8       18.8490    1.8078   26.4511    H 1 <0>  0.0000
  29   H9       17.8303    1.5497   25.0110    H 1 <0>  0.0000
  30  H10       14.0860   -0.7061   20.3215    H 1 <0>  0.3999
  31  H11       12.3934   -0.8168   20.7526    H 1 <0>  0.3999
  32  H12       16.0672    2.1299   29.4529    H 1 <0>  0.3999
@<TRIPOS>BOND
    1     1     2  1
    2     1     3  1
    3     2    11  1
    4     3    10  1
    5     3    12  1
    6     4    10  1
    7     4    11  1
    8     4    15  1
    9     5     6  1
   10     5     8  1
   11     6     7  1
   12     6    18  1
   13     7     9  1
   14     7    17  1
   15     8    11  1
   16     8    17  1
   17     9    19  1
   18    13    20  1
   19    14    20  1
   20    16    20  1
   21    19    20  1
   22     1    21  1
   23     2    22  1
   24     5    23  1
   25     5    24  1
   26     6    25  1
   27     7    26  1
   28     8    27  1
   29     9    28  1
   30     9    29  1
   31    12    30  1
   32    12    31  1
   33    18    32  1

@<TRIPOS>MOLECULE
MOL
   32   33    0    0    0
SMALL
USER_CHARGES


@<TRIPOS>ATOM
   1   C1       15.0182    0.1763   22.5603  C.2 1 <0> -0.1356
   2   C2       15.2578    0.6771   23.7706  C.2 1 <0> -0.0410
   3   C3       13.6064   -0.1782   22.2605  C.2 1 <0>  0.4856
   4   C4       12.9249    0.5162   24.3931  C.2 1 <0>  0.8408
   5   C5       15.0450    0.3468   26.9869  C.3 1 <0>  0.0000
   6   C6       16.0782    1.0736   27.8165  C.3 1 <0>  0.2800
   7   C7       16.7283    2.0138   26.8111  C.3 1 <0>  0.2800
   8   C8       14.6160    1.4110   25.9899  C.3 1 <0>  0.5801
   9   C9       17.9106    1.3823   26.0876  C.3 1 <0>  0.2800
  10   N1       12.6545   -0.0062   23.1399  N.2 1 <0> -0.6611
  11   N2       14.2601    0.8653   24.7128 N.am 1 <0> -0.4690
  12   N3       13.3162   -0.6986   21.0207 N.pl3 1 <0> -0.8501
  13   O1       18.7676   -2.3524   26.1510  O.3 1 <0> -1.0332
  14   O2       20.3972   -0.3812   26.2318  O.3 1 <0> -1.0332
  15   O3       12.0151    0.6709   25.2097  O.2 1 <0> -0.5698
  16   O4       18.9314   -0.7527   24.1606  O.2 1 <0> -1.0332
  17   O5       15.7180    2.3154   25.8293  O.3 1 <0> -0.5601
  18   O6       15.4298    1.8283   28.8379  O.3 1 <0> -0.6802
  19   O7       17.9091   -0.0135   26.3390  O.3 1 <0> -0.5513
  20   P1       19.0969   -0.9440   25.6653  P.3 1 <0>  1.3711
  21   H1       15.7916    0.0266   21.8189    H 1 <0>  0.1500
  22   H2       16.2595    0.9629   24.0718    H 1 <0>  0.1500
  23   H3       15.4311   -0.5693   26.5259    H 1 <0>  0.0000
  24   H4       14.1969    0.0553   27.6210    H 1 <0>  0.0000
  25   H5       16.7785    0.3865   28.2704    H 1 <0>  0.0000
  26   H6       17.0453    2.9424   27.2732    H 1 <0>  0.0000
  27   H7       13.7396    1.9732   26.3573    H 1 <0>  0.0000
  28   H8       18.8490    1.8078   26.4511    H 1 <0>  0.0000
  29   H9       17.8303    1.5497   25.0110    H 1 <0>  0.0000
  30  H10       14.0622   -0.8156   20.3783    H 1 <0>  0.3999
  31  H11       12.3738   -0.9344   20.8231    H 1 <0>  0.3999
  32  H12       16.0852    2.1603   29.4558    H 1 <0>  0.3999
@<TRIPOS>BOND
    1     1     2  1
    2     1     3  1
    3     2    11  1
    4     3    10  1
    5     3    12  1
    6     4    10  1
    7     4    11  1
    8     4    15  1
    9     5     6  1
   10     5     8  1
   11     6     7  1
   12     6    18  1
   13     7     9  1
   14     7    17  1
   15     8    11  1
   16     8    17  1
   17     9    19  1
   18    13    20  1
   19    14    20  1
   20    16    20  1
   21    19    20  1
   22     1    21  1
   23     2    22  1
   24     5    23  1
   25     5    24  1
   26     6    25  1
   27     7    26  1
   28     8    27  1
   29     9    28  1
   30     9    29  1
   31    12    30  1
   32    12    31  1
   33    18    32  1

@<TRIPOS>MOLECULE
MOL
   32   33    0    0    0
SMALL
USER_CHARGES


@<TRIPOS>ATOM
   1   C1       15.0031    0.1047   22.5981  C.2 1 <0> -0.1356
   2   C2       15.2472    0.6239   23.7997  C.2 1 <0> -0.0410
   3   C3       13.5922   -0.2654   22.3135  C.2 1 <0>  0.4856
   4   C4       12.9203    0.4522   24.4413  C.2 1 <0>  0.8408
   5   C5       15.0603    0.3356   27.0216  C.3 1 <0>  0.0000
   6   C6       16.0933    1.0820   27.8338  C.3 1 <0>  0.2800
   7   C7       16.7283    2.0138   26.8111  C.3 1 <0>  0.2800
   8   C8       14.6153    1.3825   26.0136  C.3 1 <0>  0.5801
   9   C9       17.9106    1.3823   26.0876  C.3 1 <0>  0.2800
  10   N1       12.6453   -0.0894   23.1973  N.2 1 <0> -0.6611
  11   N2       14.2548    0.8166   24.7466 N.am 1 <0> -0.4690
  12   N3       13.2975   -0.8050   21.0830 N.pl3 1 <0> -0.8501
  13   O1       18.7676   -2.3524   26.1510  O.3 1 <0> -1.0332
  14   O2       20.3972   -0.3812   26.2318  O.3 1 <0> -1.0332
  15   O3       12.0151    0.6104   25.2624  O.2 1 <0> -0.5698
  16   O4       18.9314   -0.7527   24.1606  O.2 1 <0> -1.0332
  17   O5       15.7085    2.2938   25.8327  O.3 1 <0> -0.5601
  18   O6       15.4460    1.8451   28.8496  O.3 1 <0> -0.6802
  19   O7       17.9091   -0.0135   26.3390  O.3 1 <0> -0.5513
  20   P1       19.0969   -0.9440   25.6653  P.3 1 <0>  1.3711
  21   H1       15.7724   -0.0487   21.8532    H 1 <0>  0.1500
  22   H2       16.2486    0.9220   24.0897    H 1 <0>  0.1500
  23   H3       15.4507   -0.5835   26.5703    H 1 <0>  0.0000
  24   H4       14.2192    0.0457   27.6658    H 1 <0>  0.0000
  25   H5       16.8025    0.4069   28.2918    H 1 <0>  0.0000
  26   H6       17.0409    2.9512   27.2583    H 1 <0>  0.0000
  27   H7       13.7369    1.9424   26.3796    H 1 <0>  0.0000
  28   H8       18.8490    1.8078   26.4511    H 1 <0>  0.0000
  29   H9       17.8303    1.5497   25.0110    H 1 <0>  0.0000
  30  H10       14.0398   -0.9246   20.4368    H 1 <0>  0.3999
  31  H11       12.3556   -1.0512   20.8954    H 1 <0>  0.3999
  32  H12       16.1030    2.1909   29.4582    H 1 <0>  0.3999
@<TRIPOS>BOND
    1     1     2  1
    2     1     3  1
    3     2    11  1
    4     3    10  1
    5     3    12  1
    6     4    10  1
    7     4    11  1
    8     4    15  1
    9     5     6  1
   10     5     8  1
   11     6     7  1
   12     6    18  1
   13     7     9  1
   14     7    17  1
   15     8    11  1
   16     8    17  1
   17     9    19  1
   18    13    20  1
   19    14    20  1
   20    16    20  1
   21    19    20  1
   22     1    21  1
   23     2    22  1
   24     5    23  1
   25     5    24  1
   26     6    25  1
   27     7    26  1
   28     8    27  1
   29     9    28  1
   30     9    29  1
   31    12    30  1
   32    12    31  1
   33    18    32  1

@<TRIPOS>MOLECULE
MOL
   32   33    0    0    0
SMALL
USER_CHARGES


@<TRIPOS>ATOM
   1   C1       14.9889    0.0336   22.6370  C.2 1 <0> -0.1356
   2   C2       15.2373    0.5710   23.8297  C.2 1 <0> -0.0410
   3   C3       13.5791   -0.3520   22.3677  C.2 1 <0>  0.4856
   4   C4       12.9165    0.3889   24.4905  C.2 1 <0>  0.8408
   5   C5       15.0759    0.3249   27.0565  C.3 1 <0>  0.0000
   6   C6       16.1084    1.0908   27.8510  C.3 1 <0>  0.2800
   7   C7       16.7283    2.0138   26.8111  C.3 1 <0>  0.2800
   8   C8       14.6150    1.3543   26.0376  C.3 1 <0>  0.5801
   9   C9       17.9106    1.3823   26.0876  C.3 1 <0>  0.2800
  10   N1       12.6371   -0.1718   23.2559  N.2 1 <0> -0.6611
  11   N2       14.2501    0.7683   24.7810 N.am 1 <0> -0.4690
  12   N3       13.2801   -0.9107   21.1468 N.pl3 1 <0> -0.8501
  13   O1       18.7676   -2.3524   26.1510  O.3 1 <0> -1.0332
  14   O2       20.3972   -0.3812   26.2318  O.3 1 <0> -1.0332
  15   O3       12.0160    0.5508   25.3159  O.2 1 <0> -0.5698
  16   O4       18.9314   -0.7527   24.1606  O.2 1 <0> -1.0332
  17   O5       15.6992    2.2720   25.8364  O.3 1 <0> -0.5601
  18   O6       15.4621    1.8623   28.8610  O.3 1 <0> -0.6802
  19   O7       17.9091   -0.0135   26.3390  O.3 1 <0> -0.5513
  20   P1       19.0969   -0.9440   25.6653  P.3 1 <0>  1.3711
  21   H1       15.7540   -0.1236   21.8886    H 1 <0>  0.1500
  22   H2       16.2382    0.8812   24.1083    H 1 <0>  0.1500
  23   H3       15.4707   -0.5970   26.6148    H 1 <0>  0.0000
  24   H4       14.2419    0.0368   27.7106    H 1 <0>  0.0000
  25   H5       16.8265    0.4279   28.3128    H 1 <0>  0.0000
  26   H6       17.0362    2.9597   27.2433    H 1 <0>  0.0000
  27   H7       13.7346    1.9119   26.4025    H 1 <0>  0.0000
  28   H8       18.8490    1.8078   26.4511    H 1 <0>  0.0000
  29   H9       17.8303    1.5497   25.0110    H 1 <0>  0.0000
  30  H10       14.0187   -1.0329   20.4969    H 1 <0>  0.3999
  31  H11       12.3390   -1.1671   20.9695    H 1 <0>  0.3999
  32  H12       16.1206    2.2217   29.4601    H 1 <0>  0.3999
@<TRIPOS>BOND
    1     1     2  1
    2     1     3  1
    3     2    11  1
    4     3    10  1
    5     3    12  1
    6     4    10  1
    7     4    11  1
    8     4    15  1
    9     5     6  1
   10     5     8  1
   11     6     7  1
   12     6    18  1
   13     7     9  1
   14     7    17  1
   15     8    11  1
   16     8    17  1
   17     9    19  1
   18    13    20  1
   19    14    20  1
   20    16    20  1
   21    19    20  1
   22     1    21  1
   23     2    22  1
   24     5    23  1
   25     5    24  1
   26     6    25  1
   27     7    26  1
   28     8    27  1
   29     9    28  1
   30     9    29  1
   31    12    30  1
   32    12    31  1
   33    18    32  1

@<TRIPOS>MOLECULE
MOL
   32   33    0    0    0
SMALL
USER_CHARGES


@<TRIPOS>ATOM
   1   C1       14.9756   -0.0372   22.6770  C.2 1 <0> -0.1356
   2   C2       15.2280    0.5184   23.8604  C.2 1 <0> -0.0410
   3   C3       13.5671   -0.4380   22.4231  C.2 1 <0>  0.4856
   4   C4       12.9137    0.3261   24.5405  C.2 1 <0>  0.8408
   5   C5       15.0918    0.3148   27.0913  C.3 1 <0>  0.0000
   6   C6       16.1236    1.0999   27.8678  C.3 1 <0>  0.2800
   7   C7       16.7283    2.0138   26.8111  C.3 1 <0>  0.2800
   8   C8       14.6150    1.3265   26.0620  C.3 1 <0>  0.5801
   9   C9       17.9106    1.3823   26.0876  C.3 1 <0>  0.2800
  10   N1       12.6300   -0.2535   23.3157  N.2 1 <0> -0.6611
  11   N2       14.2461    0.7205   24.8162 N.am 1 <0> -0.4690
  12   N3       13.2640   -1.0157   21.2121 N.pl3 1 <0> -0.8501
  13   O1       18.7676   -2.3524   26.1510  O.3 1 <0> -1.0332
  14   O2       20.3972   -0.3812   26.2318  O.3 1 <0> -1.0332
  15   O3       12.0177    0.4918   25.3702  O.2 1 <0> -0.5698
  16   O4       18.9314   -0.7527   24.1606  O.2 1 <0> -1.0332
  17   O5       15.6901    2.2503   25.8406  O.3 1 <0> -0.5601
  18   O6       15.4782    1.8797   28.8720  O.3 1 <0> -0.6802
  19   O7       17.9091   -0.0135   26.3390  O.3 1 <0> -0.5513
  20   P1       19.0969   -0.9440   25.6653  P.3 1 <0>  1.3711
  21   H1       15.7366   -0.1982   21.9252    H 1 <0>  0.1500
  22   H2       16.2283    0.8406   24.1275    H 1 <0>  0.1500
  23   H3       15.4912   -0.6097   26.6592    H 1 <0>  0.0000
  24   H4       14.2650    0.0288   27.7554    H 1 <0>  0.0000
  25   H5       16.8505    0.4493   28.3334    H 1 <0>  0.0000
  26   H6       17.0314    2.9680   27.2282    H 1 <0>  0.0000
  27   H7       13.7327    1.8817   26.4257    H 1 <0>  0.0000
  28   H8       18.8490    1.8078   26.4511    H 1 <0>  0.0000
  29   H9       17.8303    1.5497   25.0110    H 1 <0>  0.0000
  30  H10       13.9989   -1.1406   20.5585    H 1 <0>  0.3999
  31  H11       12.3239   -1.2822   21.0452    H 1 <0>  0.3999
  32  H12       16.1379    2.2526   29.4614    H 1 <0>  0.3999
@<TRIPOS>BOND
    1     1     2  1
    2     1     3  1
    3     2    11  1
    4     3    10  1
    5     3    12  1
    6     4    10  1
    7     4    11  1
    8     4    15  1
    9     5     6  1
   10     5     8  1
   11     6     7  1
   12     6    18  1
   13     7     9  1
   14     7    17  1
   15     8    11  1
   16     8    17  1
   17     9    19  1
   18    13    20  1
   19    14    20  1
   20    16    20  1
   21    19    20  1
   22     1    21  1
   23     2    22  1
   24     5    23  1
   25     5    24  1
   26     6    25  1
   27     7    26  1
   28     8    27  1
   29     9    28  1
   30     9    29  1
   31    12    30  1
   32    12    31  1
   33    18    32  1

@<TRIPOS>MOLECULE
MOL
   32   33    0    0    0
SMALL
USER_CHARGES


@<TRIPOS>ATOM
   1   C1       14.9631   -0.1075   22.7180  C.2 1 <0> -0.1356
   2   C2       15.2194    0.4661   23.8919  C.2 1 <0> -0.0410
   3   C3       13.5563   -0.5233   22.4798  C.2 1 <0>  0.4856
   4   C4       12.9117    0.2641   24.5914  C.2 1 <0>  0.8408
   5   C5       15.1081    0.3053   27.1262  C.3 1 <0>  0.0000
   6   C6       16.1389    1.1094   27.8845  C.3 1 <0>  0.2800
   7   C7       16.7283    2.0138   26.8111  C.3 1 <0>  0.2800
   8   C8       14.6155    1.2990   26.0868  C.3 1 <0>  0.5801
   9   C9       17.9106    1.3823   26.0876  C.3 1 <0>  0.2800
  10   N1       12.6241   -0.3345   23.3767  N.2 1 <0> -0.6611
  11   N2       14.2427    0.6731   24.8520 N.am 1 <0> -0.4690
  12   N3       13.2493   -1.1198   21.2790 N.pl3 1 <0> -0.8501
  13   O1       18.7676   -2.3524   26.1510  O.3 1 <0> -1.0332
  14   O2       20.3972   -0.3812   26.2318  O.3 1 <0> -1.0332
  15   O3       12.0204    0.4336   25.4253  O.2 1 <0> -0.5698
  16   O4       18.9314   -0.7527   24.1606  O.2 1 <0> -1.0332
  17   O5       15.6813    2.2285   25.8451  O.3 1 <0> -0.5601
  18   O6       15.4942    1.8974   28.8827  O.3 1 <0> -0.6802
  19   O7       17.9091   -0.0135   26.3390  O.3 1 <0> -0.5513
  20   P1       19.0969   -0.9440   25.6653  P.3 1 <0>  1.3711
  21   H1       15.7200   -0.2724   21.9629    H 1 <0>  0.1500
  22   H2       16.2189    0.8002   24.1473    H 1 <0>  0.1500
  23   H3       15.5120   -0.6216   26.7037    H 1 <0>  0.0000
  24   H4       14.2885    0.0216   27.8001    H 1 <0>  0.0000
  25   H5       16.8745    0.4711   28.3535    H 1 <0>  0.0000
  26   H6       17.0265    2.9760   27.2130    H 1 <0>  0.0000
  27   H7       13.7312    1.8518   26.4494    H 1 <0>  0.0000
  28   H8       18.8490    1.8078   26.4511    H 1 <0>  0.0000
  29   H9       17.8303    1.5497   25.0110    H 1 <0>  0.0000
  30  H10       13.9805   -1.2475   20.6218    H 1 <0>  0.3999
  31  H11       12.3102   -1.3964   21.1225    H 1 <0>  0.3999
  32  H12       16.1550    2.2837   29.4621    H 1 <0>  0.3999
@<TRIPOS>BOND
    1     1     2  1
    2     1     3  1
    3     2    11  1
    4     3    10  1
    5     3    12  1
    6     4    10  1
    7     4    11  1
    8     4    15  1
    9     5     6  1
   10     5     8  1
   11     6     7  1
   12     6    18  1
   13     7     9  1
   14     7    17  1
   15     8    11  1
   16     8    17  1
   17     9    19  1
   18    13    20  1
   19    14    20  1
   20    16    20  1
   21    19    20  1
   22     1    21  1
   23     2    22  1
   24     5    23  1
   25     5    24  1
   26     6    25  1
   27     7    26  1
   28     8    27  1
   29     9    28  1
   30     9    29  1
   31    12    30  1
   32    12    31  1
   33    18    32  1

@<TRIPOS>MOLECULE
MOL
   32   33    0    0    0
SMALL
USER_CHARGES


@<TRIPOS>ATOM
   1   C1       14.9515   -0.1774   22.7600  C.2 1 <0> -0.1356
   2   C2       15.2114    0.4143   23.9242  C.2 1 <0> -0.0410
   3   C3       13.5465   -0.6080   22.5378  C.2 1 <0>  0.4856
   4   C4       12.9105    0.2027   24.6431  C.2 1 <0>  0.8408
   5   C5       15.1247    0.2965   27.1610  C.3 1 <0>  0.0000
   6   C6       16.1542    1.1192   27.9009  C.3 1 <0>  0.2800
   7   C7       16.7283    2.0138   26.8111  C.3 1 <0>  0.2800
   8   C8       14.6164    1.2718   26.1120  C.3 1 <0>  0.5801
   9   C9       17.9106    1.3823   26.0876  C.3 1 <0>  0.2800
  10   N1       12.6193   -0.4146   23.4387  N.2 1 <0> -0.6611
  11   N2       14.2399    0.6262   24.8885 N.am 1 <0> -0.4690
  12   N3       13.2359   -1.2232   21.3474 N.pl3 1 <0> -0.8501
  13   O1       18.7676   -2.3524   26.1510  O.3 1 <0> -1.0332
  14   O2       20.3972   -0.3812   26.2318  O.3 1 <0> -1.0332
  15   O3       12.0239    0.3762   25.4812  O.2 1 <0> -0.5698
  16   O4       18.9314   -0.7527   24.1606  O.2 1 <0> -1.0332
  17   O5       15.6726    2.2068   25.8499  O.3 1 <0> -0.5601
  18   O6       15.5101    1.9154   28.8931  O.3 1 <0> -0.6802
  19   O7       17.9091   -0.0135   26.3390  O.3 1 <0> -0.5513
  20   P1       19.0969   -0.9440   25.6653  P.3 1 <0>  1.3711
  21   H1       15.7043   -0.3463   22.0017    H 1 <0>  0.1500
  22   H2       16.2099    0.7600   24.1677    H 1 <0>  0.1500
  23   H3       15.5333   -0.6327   26.7482    H 1 <0>  0.0000
  24   H4       14.3123    0.0152   27.8447    H 1 <0>  0.0000
  25   H5       16.8984    0.4935   28.3731    H 1 <0>  0.0000
  26   H6       17.0213    2.9838   27.1978    H 1 <0>  0.0000
  27   H7       13.7301    1.8222   26.4735    H 1 <0>  0.0000
  28   H8       18.8490    1.8078   26.4511    H 1 <0>  0.0000
  29   H9       17.8303    1.5497   25.0110    H 1 <0>  0.0000
  30  H10       13.9634   -1.3538   20.6867    H 1 <0>  0.3999
  31  H11       12.2981   -1.5096   21.2015    H 1 <0>  0.3999
  32  H12       16.1718    2.3149   29.4624    H 1 <0>  0.3999
@<TRIPOS>BOND
    1     1     2  1
    2     1     3  1
    3     2    11  1
    4     3    10  1
    5     3    12  1
    6     4    10  1
    7     4    11  1
    8     4    15  1
    9     5     6  1
   10     5     8  1
   11     6     7  1
   12     6    18  1
   13     7     9  1
   14     7    17  1
   15     8    11  1
   16     8    17  1
   17     9    19  1
   18    13    20  1
   19    14    20  1
   20    16    20  1
   21    19    20  1
   22     1    21  1
   23     2    22  1
   24     5    23  1
   25     5    24  1
   26     6    25  1
   27     7    26  1
   28     8    27  1
   29     9    28  1
   30     9    29  1
   31    12    30  1
   32    12    31  1
   33    18    32  1

@<TRIPOS>MOLECULE
MOL
   32   33    0    0    0
SMALL
USER_CHARGES


@<TRIPOS>ATOM
   1   C1       14.9408   -0.2467   22.8030  C.2 1 <0> -0.1356
   2   C2       15.2041    0.3628   23.9572  C.2 1 <0> -0.0410
   3   C3       13.5379   -0.6919   22.5969  C.2 1 <0>  0.4856
   4   C4       12.9103    0.1421   24.6957  C.2 1 <0>  0.8408
   5   C5       15.1416    0.2882   27.1959  C.3 1 <0>  0.0000
   6   C6       16.1695    1.1294   27.9170  C.3 1 <0>  0.2800
   7   C7       16.7283    2.0138   26.8111  C.3 1 <0>  0.2800
   8   C8       14.6177    1.2450   26.1375  C.3 1 <0>  0.5801
   9   C9       17.9106    1.3823   26.0876  C.3 1 <0>  0.2800
  10   N1       12.6156   -0.4940   23.5019  N.2 1 <0> -0.6611
  11   N2       14.2378    0.5798   24.9256 N.am 1 <0> -0.4690
  12   N3       13.2239   -1.3258   21.4172 N.pl3 1 <0> -0.8501
  13   O1       18.7676   -2.3524   26.1510  O.3 1 <0> -1.0332
  14   O2       20.3972   -0.3812   26.2318  O.3 1 <0> -1.0332
  15   O3       12.0283    0.3196   25.5378  O.2 1 <0> -0.5698
  16   O4       18.9314   -0.7527   24.1606  O.2 1 <0> -1.0332
  17   O5       15.6642    2.1850   25.8551  O.3 1 <0> -0.5601
  18   O6       15.5259    1.9336   28.9030  O.3 1 <0> -0.6802
  19   O7       17.9091   -0.0135   26.3390  O.3 1 <0> -0.5513
  20   P1       19.0969   -0.9440   25.6653  P.3 1 <0>  1.3711
  21   H1       15.6895   -0.4197   22.0416    H 1 <0>  0.1500
  22   H2       16.2014    0.7200   24.1888    H 1 <0>  0.1500
  23   H3       15.5550   -0.6431   26.7927    H 1 <0>  0.0000
  24   H4       14.3366    0.0095   27.8892    H 1 <0>  0.0000
  25   H5       16.9223    0.5163   28.3922    H 1 <0>  0.0000
  26   H6       17.0160    2.9913   27.1825    H 1 <0>  0.0000
  27   H7       13.7295    1.7930   26.4980    H 1 <0>  0.0000
  28   H8       18.8490    1.8078   26.4511    H 1 <0>  0.0000
  29   H9       17.8303    1.5497   25.0110    H 1 <0>  0.0000
  30  H10       13.9477   -1.4593   20.7531    H 1 <0>  0.3999
  31  H11       12.2874   -1.6218   21.2821    H 1 <0>  0.3999
  32  H12       16.1884    2.3463   29.4620    H 1 <0>  0.3999
@<TRIPOS>BOND
    1     1     2  1
    2     1     3  1
    3     2    11  1
    4     3    10  1
    5     3    12  1
    6     4    10  1
    7     4    11  1
    8     4    15  1
    9     5     6  1
   10     5     8  1
   11     6     7  1
   12     6    18  1
   13     7     9  1
   14     7    17  1
   15     8    11  1
   16     8    17  1
   17     9    19  1
   18    13    20  1
   19    14    20  1
   20    16    20  1
   21    19    20  1
   22     1    21  1
   23     2    22  1
   24     5    23  1
   25     5    24  1
   26     6    25  1
   27     7    26  1
   28     8    27  1
   29     9    28  1
   30     9    29  1
   31    12    30  1
   32    12    31  1
   33    18    32  1

@<TRIPOS>MOLECULE
MOL
   32   33    0    0    0
SMALL
USER_CHARGES


@<TRIPOS>ATOM
   1   C1       14.9310   -0.3156   22.8471  C.2 1 <0> -0.1356
   2   C2       15.1975    0.3117   23.9909  C.2 1 <0> -0.0410
   3   C3       13.5304   -0.7750   22.6573  C.2 1 <0>  0.4856
   4   C4       12.9110    0.0821   24.7491  C.2 1 <0>  0.8408
   5   C5       15.1589    0.2806   27.2308  C.3 1 <0>  0.0000
   6   C6       16.1848    1.1399   27.9329  C.3 1 <0>  0.2800
   7   C7       16.7283    2.0138   26.8111  C.3 1 <0>  0.2800
   8   C8       14.6194    1.2186   26.1633  C.3 1 <0>  0.5801
   9   C9       17.9106    1.3823   26.0876  C.3 1 <0>  0.2800
  10   N1       12.6130   -0.5725   23.5662  N.2 1 <0> -0.6611
  11   N2       14.2364    0.5339   24.9634 N.am 1 <0> -0.4690
  12   N3       13.2132   -1.4275   21.4885 N.pl3 1 <0> -0.8501
  13   O1       18.7676   -2.3524   26.1510  O.3 1 <0> -1.0332
  14   O2       20.3972   -0.3812   26.2318  O.3 1 <0> -1.0332
  15   O3       12.0335    0.2638   25.5951  O.2 1 <0> -0.5698
  16   O4       18.9314   -0.7527   24.1606  O.2 1 <0> -1.0332
  17   O5       15.6559    2.1632   25.8607  O.3 1 <0> -0.5601
  18   O6       15.5417    1.9521   28.9126  O.3 1 <0> -0.6802
  19   O7       17.9091   -0.0135   26.3390  O.3 1 <0> -0.5513
  20   P1       19.0969   -0.9440   25.6653  P.3 1 <0>  1.3711
  21   H1       15.6756   -0.4927   22.0827    H 1 <0>  0.1500
  22   H2       16.1934    0.6802   24.2104    H 1 <0>  0.1500
  23   H3       15.5771   -0.6527   26.8372    H 1 <0>  0.0000
  24   H4       14.3612    0.0047   27.9336    H 1 <0>  0.0000
  25   H5       16.9461    0.5395   28.4108    H 1 <0>  0.0000
  26   H6       17.0105    2.9986   27.1672    H 1 <0>  0.0000
  27   H7       13.7292    1.7640   26.5229    H 1 <0>  0.0000
  28   H8       18.8490    1.8078   26.4511    H 1 <0>  0.0000
  29   H9       17.8303    1.5497   25.0110    H 1 <0>  0.0000
  30  H10       13.9333   -1.5640   20.8210    H 1 <0>  0.3999
  31  H11       12.2783   -1.7330   21.3642    H 1 <0>  0.3999
  32  H12       16.2046    2.3778   29.4612    H 1 <0>  0.3999
@<TRIPOS>BOND
    1     1     2  1
    2     1     3  1
    3     2    11  1
    4     3    10  1
    5     3    12  1
    6     4    10  1
    7     4    11  1
    8     4    15  1
    9     5     6  1
   10     5     8  1
   11     6     7  1
   12     6    18  1
   13     7     9  1
   14     7    17  1
   15     8    11  1
   16     8    17  1
   17     9    19  1
   18    13    20  1
   19    14    20  1
   20    16    20  1
   21    19    20  1
   22     1    21  1
   23     2    22  1
   24     5    23  1
   25     5    24  1
   26     6    25  1
   27     7    26  1
   28     8    27  1
   29     9    28  1
   30     9    29  1
   31    12    30  1
   32    12    31  1
   33    18    32  1

@<TRIPOS>MOLECULE
MOL
   32   33    0    0    0
SMALL
USER_CHARGES


@<TRIPOS>ATOM
   1   C1       14.9220   -0.3839   22.8922  C.2 1 <0> -0.1356
   2   C2       15.1915    0.2610   24.0255  C.2 1 <0> -0.0410
   3   C3       13.5240   -0.8574   22.7188  C.2 1 <0>  0.4856
   4   C4       12.9125    0.0229   24.8033  C.2 1 <0>  0.8408
   5   C5       15.1765    0.2736   27.2656  C.3 1 <0>  0.0000
   6   C6       16.2002    1.1507   27.9485  C.3 1 <0>  0.2800
   7   C7       16.7283    2.0138   26.8111  C.3 1 <0>  0.2800
   8   C8       14.6215    1.1925   26.1896  C.3 1 <0>  0.5801
   9   C9       17.9106    1.3823   26.0876  C.3 1 <0>  0.2800
  10   N1       12.6115   -0.6501   23.6315  N.2 1 <0> -0.6611
  11   N2       14.2356    0.4884   25.0018 N.am 1 <0> -0.4690
  12   N3       13.2039   -1.5283   21.5613 N.pl3 1 <0> -0.8501
  13   O1       18.7676   -2.3524   26.1510  O.3 1 <0> -1.0332
  14   O2       20.3972   -0.3812   26.2318  O.3 1 <0> -1.0332
  15   O3       12.0397    0.2088   25.6531  O.2 1 <0> -0.5698
  16   O4       18.9314   -0.7527   24.1606  O.2 1 <0> -1.0332
  17   O5       15.6479    2.1414   25.8666  O.3 1 <0> -0.5601
  18   O6       15.5573    1.9709   28.9219  O.3 1 <0> -0.6802
  19   O7       17.9091   -0.0135   26.3390  O.3 1 <0> -0.5513
  20   P1       19.0969   -0.9440   25.6653  P.3 1 <0>  1.3711
  21   H1       15.6627   -0.5653   22.1248    H 1 <0>  0.1500
  22   H2       16.1859    0.6407   24.2327    H 1 <0>  0.1500
  23   H3       15.5996   -0.6615   26.8816    H 1 <0>  0.0000
  24   H4       14.3861    0.0007   27.9779    H 1 <0>  0.0000
  25   H5       16.9699    0.5632   28.4290    H 1 <0>  0.0000
  26   H6       17.0048    3.0057   27.1518    H 1 <0>  0.0000
  27   H7       13.7294    1.7354   26.5481    H 1 <0>  0.0000
  28   H8       18.8490    1.8078   26.4511    H 1 <0>  0.0000
  29   H9       17.8303    1.5497   25.0110    H 1 <0>  0.0000
  30  H10       13.9203   -1.6679   20.8904    H 1 <0>  0.3999
  31  H11       12.2707   -1.8432   21.4480    H 1 <0>  0.3999
  32  H12       16.2207    2.4094   29.4598    H 1 <0>  0.3999
@<TRIPOS>BOND
    1     1     2  1
    2     1     3  1
    3     2    11  1
    4     3    10  1
    5     3    12  1
    6     4    10  1
    7     4    11  1
    8     4    15  1
    9     5     6  1
   10     5     8  1
   11     6     7  1
   12     6    18  1
   13     7     9  1
   14     7    17  1
   15     8    11  1
   16     8    17  1
   17     9    19  1
   18    13    20  1
   19    14    20  1
   20    16    20  1
   21    19    20  1
   22     1    21  1
   23     2    22  1
   24     5    23  1
   25     5    24  1
   26     6    25  1
   27     7    26  1
   28     8    27  1
   29     9    28  1
   30     9    29  1
   31    12    30  1
   32    12    31  1
   33    18    32  1

@<TRIPOS>MOLECULE
MOL
   32   33    0    0    0
SMALL
USER_CHARGES


@<TRIPOS>ATOM
   1   C1       14.9140   -0.4517   22.9382  C.2 1 <0> -0.1356
   2   C2       15.1862    0.2107   24.0607  C.2 1 <0> -0.0410
   3   C3       13.5188   -0.9390   22.7814  C.2 1 <0>  0.4856
   4   C4       12.9149   -0.0356   24.8583  C.2 1 <0>  0.8408
   5   C5       15.1943    0.2672   27.3004  C.3 1 <0>  0.0000
   6   C6       16.2156    1.1619   27.9639  C.3 1 <0>  0.2800
   7   C7       16.7283    2.0138   26.8111  C.3 1 <0>  0.2800
   8   C8       14.6240    1.1668   26.2161  C.3 1 <0>  0.5801
   9   C9       17.9106    1.3823   26.0876  C.3 1 <0>  0.2800
  10   N1       12.6111   -0.7269   23.6979  N.2 1 <0> -0.6611
  11   N2       14.2355    0.4435   25.0408 N.am 1 <0> -0.4690
  12   N3       13.1959   -1.6281   21.6355 N.pl3 1 <0> -0.8501
  13   O1       18.7676   -2.3524   26.1510  O.3 1 <0> -1.0332
  14   O2       20.3972   -0.3812   26.2318  O.3 1 <0> -1.0332
  15   O3       12.0467    0.1547   25.7118  O.2 1 <0> -0.5698
  16   O4       18.9314   -0.7527   24.1606  O.2 1 <0> -1.0332
  17   O5       15.6401    2.1197   25.8728  O.3 1 <0> -0.5601
  18   O6       15.5729    1.9899   28.9307  O.3 1 <0> -0.6802
  19   O7       17.9091   -0.0135   26.3390  O.3 1 <0> -0.5513
  20   P1       19.0969   -0.9440   25.6653  P.3 1 <0>  1.3711
  21   H1       15.6506   -0.6373   22.1680    H 1 <0>  0.1500
  22   H2       16.1788    0.6014   24.2555    H 1 <0>  0.1500
  23   H3       15.6225   -0.6695   26.9260    H 1 <0>  0.0000
  24   H4       14.4114   -0.0025   28.0220    H 1 <0>  0.0000
  25   H5       16.9936    0.5874   28.4466    H 1 <0>  0.0000
  26   H6       16.9990    3.0124   27.1363    H 1 <0>  0.0000
  27   H7       13.7301    1.7072   26.5738    H 1 <0>  0.0000
  28   H8       18.8490    1.8078   26.4511    H 1 <0>  0.0000
  29   H9       17.8303    1.5497   25.0110    H 1 <0>  0.0000
  30  H10       13.9087   -1.7710   20.9614    H 1 <0>  0.3999
  31  H11       12.2647   -1.9522   21.5333    H 1 <0>  0.3999
  32  H12       16.2364    2.4411   29.4578    H 1 <0>  0.3999
@<TRIPOS>BOND
    1     1     2  1
    2     1     3  1
    3     2    11  1
    4     3    10  1
    5     3    12  1
    6     4    10  1
    7     4    11  1
    8     4    15  1
    9     5     6  1
   10     5     8  1
   11     6     7  1
   12     6    18  1
   13     7     9  1
   14     7    17  1
   15     8    11  1
   16     8    17  1
   17     9    19  1
   18    13    20  1
   19    14    20  1
   20    16    20  1
   21    19    20  1
   22     1    21  1
   23     2    22  1
   24     5    23  1
   25     5    24  1
   26     6    25  1
   27     7    26  1
   28     8    27  1
   29     9    28  1
   30     9    29  1
   31    12    30  1
   32    12    31  1
   33    18    32  1

@<TRIPOS>MOLECULE
MOL
   32   33    0    0    0
SMALL
USER_CHARGES


@<TRIPOS>ATOM
   1   C1       14.9069   -0.5189   22.9852  C.2 1 <0> -0.1356
   2   C2       15.1816    0.1609   24.0966  C.2 1 <0> -0.0410
   3   C3       13.5146   -1.0198   22.8452  C.2 1 <0>  0.4856
   4   C4       12.9182   -0.0932   24.9140  C.2 1 <0>  0.8408
   5   C5       15.2125    0.2614   27.3351  C.3 1 <0>  0.0000
   6   C6       16.2310    1.1735   27.9790  C.3 1 <0>  0.2800
   7   C7       16.7283    2.0138   26.8111  C.3 1 <0>  0.2800
   8   C8       14.6270    1.1415   26.2430  C.3 1 <0>  0.5801
   9   C9       17.9106    1.3823   26.0876  C.3 1 <0>  0.2800
  10   N1       12.6119   -0.8027   23.7654  N.2 1 <0> -0.6611
  11   N2       14.2361    0.3991   25.0804 N.am 1 <0> -0.4690
  12   N3       13.1894   -1.7270   21.7111 N.pl3 1 <0> -0.8501
  13   O1       18.7676   -2.3524   26.1510  O.3 1 <0> -1.0332
  14   O2       20.3972   -0.3812   26.2318  O.3 1 <0> -1.0332
  15   O3       12.0546    0.1014   25.7712  O.2 1 <0> -0.5698
  16   O4       18.9314   -0.7527   24.1606  O.2 1 <0> -1.0332
  17   O5       15.6326    2.0980   25.8795  O.3 1 <0> -0.5601
  18   O6       15.5884    2.0091   28.9392  O.3 1 <0> -0.6802
  19   O7       17.9091   -0.0135   26.3390  O.3 1 <0> -0.5513
  20   P1       19.0969   -0.9440   25.6653  P.3 1 <0>  1.3711
  21   H1       15.6394   -0.7089   22.2122    H 1 <0>  0.1500
  22   H2       16.1723    0.5623   24.2789    H 1 <0>  0.1500
  23   H3       15.6457   -0.6767   26.9703    H 1 <0>  0.0000
  24   H4       14.4371   -0.0049   28.0660    H 1 <0>  0.0000
  25   H5       17.0172    0.6119   28.4638    H 1 <0>  0.0000
  26   H6       16.9930    3.0190   27.1208    H 1 <0>  0.0000
  27   H7       13.7311    1.6793   26.5998    H 1 <0>  0.0000
  28   H8       18.8490    1.8078   26.4511    H 1 <0>  0.0000
  29   H9       17.8303    1.5497   25.0110    H 1 <0>  0.0000
  30  H10       13.8984   -1.8732   21.0338    H 1 <0>  0.3999
  31  H11       12.2601   -2.0602   21.6200    H 1 <0>  0.3999
  32  H12       16.2519    2.4730   29.4553    H 1 <0>  0.3999
@<TRIPOS>BOND
    1     1     2  1
    2     1     3  1
    3     2    11  1
    4     3    10  1
    5     3    12  1
    6     4    10  1
    7     4    11  1
    8     4    15  1
    9     5     6  1
   10     5     8  1
   11     6     7  1
   12     6    18  1
   13     7     9  1
   14     7    17  1
   15     8    11  1
   16     8    17  1
   17     9    19  1
   18    13    20  1
   19    14    20  1
   20    16    20  1
   21    19    20  1
   22     1    21  1
   23     2    22  1
   24     5    23  1
   25     5    24  1
   26     6    25  1
   27     7    26  1
   28     8    27  1
   29     9    28  1
   30     9    29  1
   31    12    30  1
   32    12    31  1
   33    18    32  1

@<TRIPOS>MOLECULE
MOL
   32   33    0    0    0
SMALL
USER_CHARGES


@<TRIPOS>ATOM
   1   C1       14.9006   -0.5856   23.0332  C.2 1 <0> -0.1356
   2   C2       15.1777    0.1115   24.1333  C.2 1 <0> -0.0410
   3   C3       13.5117   -1.0998   22.9101  C.2 1 <0>  0.4856
   4   C4       12.9224   -0.1501   24.9705  C.2 1 <0>  0.8408
   5   C5       15.2310    0.2562   27.3698  C.3 1 <0>  0.0000
   6   C6       16.2464    1.1853   27.9939  C.3 1 <0>  0.2800
   7   C7       16.7283    2.0138   26.8111  C.3 1 <0>  0.2800
   8   C8       14.6303    1.1166   26.2701  C.3 1 <0>  0.5801
   9   C9       17.9106    1.3823   26.0876  C.3 1 <0>  0.2800
  10   N1       12.6137   -0.8776   23.8338  N.2 1 <0> -0.6611
  11   N2       14.2373    0.3553   25.1206 N.am 1 <0> -0.4690
  12   N3       13.1842   -1.8250   21.7881 N.pl3 1 <0> -0.8501
  13   O1       18.7676   -2.3524   26.1510  O.3 1 <0> -1.0332
  14   O2       20.3972   -0.3812   26.2318  O.3 1 <0> -1.0332
  15   O3       12.0634    0.0490   25.8313  O.2 1 <0> -0.5698
  16   O4       18.9314   -0.7527   24.1606  O.2 1 <0> -1.0332
  17   O5       15.6253    2.0763   25.8864  O.3 1 <0> -0.5601
  18   O6       15.6038    2.0286   28.9474  O.3 1 <0> -0.6802
  19   O7       17.9091   -0.0135   26.3390  O.3 1 <0> -0.5513
  20   P1       19.0969   -0.9440   25.6653  P.3 1 <0>  1.3711
  21   H1       15.6292   -0.7800   22.2575    H 1 <0>  0.1500
  22   H2       16.1663    0.5236   24.3028    H 1 <0>  0.1500
  23   H3       15.6694   -0.6831   27.0146    H 1 <0>  0.0000
  24   H4       14.4631   -0.0065   28.1099    H 1 <0>  0.0000
  25   H5       17.0408    0.6369   28.4804    H 1 <0>  0.0000
  26   H6       16.9868    3.0252   27.1052    H 1 <0>  0.0000
  27   H7       13.7325    1.6518   26.6262    H 1 <0>  0.0000
  28   H8       18.8490    1.8078   26.4511    H 1 <0>  0.0000
  29   H9       17.8303    1.5497   25.0110    H 1 <0>  0.0000
  30  H10       13.8895   -1.9744   21.1076    H 1 <0>  0.3999
  31  H11       12.2571   -2.1670   21.7083    H 1 <0>  0.3999
  32  H12       16.2671    2.5049   29.4523    H 1 <0>  0.3999
@<TRIPOS>BOND
    1     1     2  1
    2     1     3  1
    3     2    11  1
    4     3    10  1
    5     3    12  1
    6     4    10  1
    7     4    11  1
    8     4    15  1
    9     5     6  1
   10     5     8  1
   11     6     7  1
   12     6    18  1
   13     7     9  1
   14     7    17  1
   15     8    11  1
   16     8    17  1
   17     9    19  1
   18    13    20  1
   19    14    20  1
   20    16    20  1
   21    19    20  1
   22     1    21  1
   23     2    22  1
   24     5    23  1
   25     5    24  1
   26     6    25  1
   27     7    26  1
   28     8    27  1
   29     9    28  1
   30     9    29  1
   31    12    30  1
   32    12    31  1
   33    18    32  1

@<TRIPOS>MOLECULE
MOL
   32   33    0    0    0
SMALL
USER_CHARGES


@<TRIPOS>ATOM
   1   C1       14.8953   -0.6516   23.0821  C.2 1 <0> -0.1356
   2   C2       15.1744    0.0626   24.1706  C.2 1 <0> -0.0410
   3   C3       13.5098   -1.1788   22.9761  C.2 1 <0>  0.4856
   4   C4       12.9275   -0.2062   25.0277  C.2 1 <0>  0.8408
   5   C5       15.2497    0.2517   27.4044  C.3 1 <0>  0.0000
   6   C6       16.2619    1.1975   28.0085  C.3 1 <0>  0.2800
   7   C7       16.7283    2.0138   26.8111  C.3 1 <0>  0.2800
   8   C8       14.6340    1.0921   26.2976  C.3 1 <0>  0.5801
   9   C9       17.9106    1.3823   26.0876  C.3 1 <0>  0.2800
  10   N1       12.6167   -0.9516   23.9033  N.2 1 <0> -0.6611
  11   N2       14.2391    0.3120   25.1614 N.am 1 <0> -0.4690
  12   N3       13.1803   -1.9219   21.8664 N.pl3 1 <0> -0.8501
  13   O1       18.7676   -2.3524   26.1510  O.3 1 <0> -1.0332
  14   O2       20.3972   -0.3812   26.2318  O.3 1 <0> -1.0332
  15   O3       12.0730   -0.0025   25.8920  O.2 1 <0> -0.5698
  16   O4       18.9314   -0.7527   24.1606  O.2 1 <0> -1.0332
  17   O5       15.6182    2.0546   25.8937  O.3 1 <0> -0.5601
  18   O6       15.6191    2.0484   28.9551  O.3 1 <0> -0.6802
  19   O7       17.9091   -0.0135   26.3390  O.3 1 <0> -0.5513
  20   P1       19.0969   -0.9440   25.6653  P.3 1 <0>  1.3711
  21   H1       15.6198   -0.8505   22.3038    H 1 <0>  0.1500
  22   H2       16.1607    0.4851   24.3274    H 1 <0>  0.1500
  23   H3       15.6934   -0.6888   27.0587    H 1 <0>  0.0000
  24   H4       14.4894   -0.0073   28.1535    H 1 <0>  0.0000
  25   H5       17.0642    0.6623   28.4966    H 1 <0>  0.0000
  26   H6       16.9804    3.0312   27.0896    H 1 <0>  0.0000
  27   H7       13.7344    1.6246   26.6530    H 1 <0>  0.0000
  28   H8       18.8490    1.8078   26.4511    H 1 <0>  0.0000
  29   H9       17.8303    1.5497   25.0110    H 1 <0>  0.0000
  30  H10       13.8820   -2.0748   21.1829    H 1 <0>  0.3999
  31  H11       12.2556   -2.2726   21.7980    H 1 <0>  0.3999
  32  H12       16.2820    2.5369   29.4487    H 1 <0>  0.3999
@<TRIPOS>BOND
    1     1     2  1
    2     1     3  1
    3     2    11  1
    4     3    10  1
    5     3    12  1
    6     4    10  1
    7     4    11  1
    8     4    15  1
    9     5     6  1
   10     5     8  1
   11     6     7  1
   12     6    18  1
   13     7     9  1
   14     7    17  1
   15     8    11  1
   16     8    17  1
   17     9    19  1
   18    13    20  1
   19    14    20  1
   20    16    20  1
   21    19    20  1
   22     1    21  1
   23     2    22  1
   24     5    23  1
   25     5    24  1
   26     6    25  1
   27     7    26  1
   28     8    27  1
   29     9    28  1
   30     9    29  1
   31    12    30  1
   32    12    31  1
   33    18    32  1

@<TRIPOS>MOLECULE
MOL
   32   33    0    0    0
SMALL
USER_CHARGES


@<TRIPOS>ATOM
   1   C1       14.8909   -0.7170   23.1319  C.2 1 <0> -0.1356
   2   C2       15.1718    0.0142   24.2086  C.2 1 <0> -0.0410
   3   C3       13.5091   -1.2570   23.0432  C.2 1 <0>  0.4856
   4   C4       12.9334   -0.2615   25.0856  C.2 1 <0>  0.8408
   5   C5       15.2688    0.2478   27.4389  C.3 1 <0>  0.0000
   6   C6       16.2773    1.2101   28.0228  C.3 1 <0>  0.2800
   7   C7       16.7283    2.0138   26.8111  C.3 1 <0>  0.2800
   8   C8       14.6381    1.0680   26.3254  C.3 1 <0>  0.5801
   9   C9       17.9106    1.3823   26.0876  C.3 1 <0>  0.2800
  10   N1       12.6208   -1.0246   23.9737  N.2 1 <0> -0.6611
  11   N2       14.2416    0.2693   25.2027 N.am 1 <0> -0.4690
  12   N3       13.1779   -2.0178   21.9461 N.pl3 1 <0> -0.8501
  13   O1       18.7676   -2.3524   26.1510  O.3 1 <0> -1.0332
  14   O2       20.3972   -0.3812   26.2318  O.3 1 <0> -1.0332
  15   O3       12.0835   -0.0531   25.9533  O.2 1 <0> -0.5698
  16   O4       18.9314   -0.7527   24.1606  O.2 1 <0> -1.0332
  17   O5       15.6113    2.0330   25.9014  O.3 1 <0> -0.5601
  18   O6       15.6343    2.0683   28.9625  O.3 1 <0> -0.6802
  19   O7       17.9091   -0.0135   26.3390  O.3 1 <0> -0.5513
  20   P1       19.0969   -0.9440   25.6653  P.3 1 <0>  1.3711
  21   H1       15.6114   -0.9205   22.3511    H 1 <0>  0.1500
  22   H2       16.1557    0.4469   24.3525    H 1 <0>  0.1500
  23   H3       15.7178   -0.6936   27.1028    H 1 <0>  0.0000
  24   H4       14.5160   -0.0072   28.1970    H 1 <0>  0.0000
  25   H5       17.0876    0.6882   28.5122    H 1 <0>  0.0000
  26   H6       16.9739    3.0370   27.0740    H 1 <0>  0.0000
  27   H7       13.7367    1.5978   26.6801    H 1 <0>  0.0000
  28   H8       18.8490    1.8078   26.4511    H 1 <0>  0.0000
  29   H9       17.8303    1.5497   25.0110    H 1 <0>  0.0000
  30  H10       13.8759   -2.1741   21.2596    H 1 <0>  0.3999
  31  H11       12.2556   -2.3769   21.8891    H 1 <0>  0.3999
  32  H12       16.2966    2.5689   29.4445    H 1 <0>  0.3999
@<TRIPOS>BOND
    1     1     2  1
    2     1     3  1
    3     2    11  1
    4     3    10  1
    5     3    12  1
    6     4    10  1
    7     4    11  1
    8     4    15  1
    9     5     6  1
   10     5     8  1
   11     6     7  1
   12     6    18  1
   13     7     9  1
   14     7    17  1
   15     8    11  1
   16     8    17  1
   17     9    19  1
   18    13    20  1
   19    14    20  1
   20    16    20  1
   21    19    20  1
   22     1    21  1
   23     2    22  1
   24     5    23  1
   25     5    24  1
   26     6    25  1
   27     7    26  1
   28     8    27  1
   29     9    28  1
   30     9    29  1
   31    12    30  1
   32    12    31  1
   33    18    32  1

@<TRIPOS>MOLECULE
MOL
   32   33    0    0    0
SMALL
USER_CHARGES


@<TRIPOS>ATOM
   1   C1       14.8873   -0.7817   23.1827  C.2 1 <0> -0.1356
   2   C2       15.1699   -0.0337   24.2473  C.2 1 <0> -0.0410
   3   C3       13.5095   -1.3343   23.1113  C.2 1 <0>  0.4856
   4   C4       12.9402   -0.3159   25.1443  C.2 1 <0>  0.8408
   5   C5       15.2881    0.2445   27.4734  C.3 1 <0>  0.0000
   6   C6       16.2927    1.2229   28.0368  C.3 1 <0>  0.2800
   7   C7       16.7283    2.0138   26.8111  C.3 1 <0>  0.2800
   8   C8       14.6427    1.0443   26.3535  C.3 1 <0>  0.5801
   9   C9       17.9106    1.3823   26.0876  C.3 1 <0>  0.2800
  10   N1       12.6260   -1.0966   24.0450  N.2 1 <0> -0.6611
  11   N2       14.2447    0.2272   25.2446 N.am 1 <0> -0.4690
  12   N3       13.1768   -2.1126   22.0270 N.pl3 1 <0> -0.8501
  13   O1       18.7676   -2.3524   26.1510  O.3 1 <0> -1.0332
  14   O2       20.3972   -0.3812   26.2318  O.3 1 <0> -1.0332
  15   O3       12.0948   -0.1027   26.0152  O.2 1 <0> -0.5698
  16   O4       18.9314   -0.7527   24.1606  O.2 1 <0> -1.0332
  17   O5       15.6047    2.0115   25.9094  O.3 1 <0> -0.5601
  18   O6       15.6493    2.0885   28.9695  O.3 1 <0> -0.6802
  19   O7       17.9091   -0.0135   26.3390  O.3 1 <0> -0.5513
  20   P1       19.0969   -0.9440   25.6653  P.3 1 <0>  1.3711
  21   H1       15.6040   -0.9899   22.3995    H 1 <0>  0.1500
  22   H2       16.1511    0.4090   24.3781    H 1 <0>  0.1500
  23   H3       15.7425   -0.6976   27.1467    H 1 <0>  0.0000
  24   H4       14.5429   -0.0064   28.2403    H 1 <0>  0.0000
  25   H5       17.1108    0.7144   28.5273    H 1 <0>  0.0000
  26   H6       16.9673    3.0424   27.0584    H 1 <0>  0.0000
  27   H7       13.7394    1.5715   26.7076    H 1 <0>  0.0000
  28   H8       18.8490    1.8078   26.4511    H 1 <0>  0.0000
  29   H9       17.8303    1.5497   25.0110    H 1 <0>  0.0000
  30  H10       13.8711   -2.2725   21.3377    H 1 <0>  0.3999
  31  H11       12.2572   -2.4801   21.9817    H 1 <0>  0.3999
  32  H12       16.3109    2.6011   29.4399    H 1 <0>  0.3999
@<TRIPOS>BOND
    1     1     2  1
    2     1     3  1
    3     2    11  1
    4     3    10  1
    5     3    12  1
    6     4    10  1
    7     4    11  1
    8     4    15  1
    9     5     6  1
   10     5     8  1
   11     6     7  1
   12     6    18  1
   13     7     9  1
   14     7    17  1
   15     8    11  1
   16     8    17  1
   17     9    19  1
   18    13    20  1
   19    14    20  1
   20    16    20  1
   21    19    20  1
   22     1    21  1
   23     2    22  1
   24     5    23  1
   25     5    24  1
   26     6    25  1
   27     7    26  1
   28     8    27  1
   29     9    28  1
   30     9    29  1
   31    12    30  1
   32    12    31  1
   33    18    32  1

@<TRIPOS>MOLECULE
MOL
   32   33    0    0    0
SMALL
USER_CHARGES


@<TRIPOS>ATOM
   1   C1       14.8847   -0.8458   23.2343  C.2 1 <0> -0.1356
   2   C2       15.1687   -0.0811   24.2866  C.2 1 <0> -0.0410
   3   C3       13.5111   -1.4106   23.1805  C.2 1 <0>  0.4856
   4   C4       12.9479   -0.3694   25.2036  C.2 1 <0>  0.8408
   5   C5       15.3077    0.2419   27.5077  C.3 1 <0>  0.0000
   6   C6       16.3081    1.2360   28.0505  C.3 1 <0>  0.2800
   7   C7       16.7283    2.0138   26.8111  C.3 1 <0>  0.2800
   8   C8       14.6476    1.0210   26.3819  C.3 1 <0>  0.5801
   9   C9       17.9106    1.3823   26.0876  C.3 1 <0>  0.2800
  10   N1       12.6324   -1.1675   24.1173  N.2 1 <0> -0.6611
  11   N2       14.2485    0.1857   25.2871 N.am 1 <0> -0.4690
  12   N3       13.1770   -2.2063   22.1092 N.pl3 1 <0> -0.8501
  13   O1       18.7676   -2.3524   26.1510  O.3 1 <0> -1.0332
  14   O2       20.3972   -0.3812   26.2318  O.3 1 <0> -1.0332
  15   O3       12.1071   -0.1515   26.0777  O.2 1 <0> -0.5698
  16   O4       18.9314   -0.7527   24.1606  O.2 1 <0> -1.0332
  17   O5       15.5983    1.9900   25.9177  O.3 1 <0> -0.5601
  18   O6       15.6643    2.1089   28.9761  O.3 1 <0> -0.6802
  19   O7       17.9091   -0.0135   26.3390  O.3 1 <0> -0.5513
  20   P1       19.0969   -0.9440   25.6653  P.3 1 <0>  1.3711
  21   H1       15.5974   -1.0587   22.4488    H 1 <0>  0.1500
  22   H2       16.1471    0.3714   24.4043    H 1 <0>  0.1500
  23   H3       15.7676   -0.7008   27.1905    H 1 <0>  0.0000
  24   H4       14.5702   -0.0048   28.2834    H 1 <0>  0.0000
  25   H5       17.1339    0.7410   28.5419    H 1 <0>  0.0000
  26   H6       16.9605    3.0476   27.0427    H 1 <0>  0.0000
  27   H7       13.7425    1.5455   26.7354    H 1 <0>  0.0000
  28   H8       18.8490    1.8078   26.4511    H 1 <0>  0.0000
  29   H9       17.8303    1.5497   25.0110    H 1 <0>  0.0000
  30  H10       13.8677   -2.3698   21.4171    H 1 <0>  0.3999
  31  H11       12.2602   -2.5819   22.0756    H 1 <0>  0.3999
  32  H12       16.3249    2.6332   29.4347    H 1 <0>  0.3999
@<TRIPOS>BOND
    1     1     2  1
    2     1     3  1
    3     2    11  1
    4     3    10  1
    5     3    12  1
    6     4    10  1
    7     4    11  1
    8     4    15  1
    9     5     6  1
   10     5     8  1
   11     6     7  1
   12     6    18  1
   13     7     9  1
   14     7    17  1
   15     8    11  1
   16     8    17  1
   17     9    19  1
   18    13    20  1
   19    14    20  1
   20    16    20  1
   21    19    20  1
   22     1    21  1
   23     2    22  1
   24     5    23  1
   25     5    24  1
   26     6    25  1
   27     7    26  1
   28     8    27  1
   29     9    28  1
   30     9    29  1
   31    12    30  1
   32    12    31  1
   33    18    32  1

@<TRIPOS>MOLECULE
MOL
   32   33    0    0    0
SMALL
USER_CHARGES


@<TRIPOS>ATOM
   1   C1       14.8830   -0.9092   23.2868  C.2 1 <0> -0.1356
   2   C2       15.1681   -0.1279   24.3266  C.2 1 <0> -0.0410
   3   C3       13.5138   -1.4860   23.2507  C.2 1 <0>  0.4856
   4   C4       12.9565   -0.4221   25.2635  C.2 1 <0>  0.8408
   5   C5       15.3275    0.2398   27.5419  C.3 1 <0>  0.0000
   6   C6       16.3235    1.2495   28.0639  C.3 1 <0>  0.2800
   7   C7       16.7283    2.0138   26.8111  C.3 1 <0>  0.2800
   8   C8       14.6529    0.9981   26.4105  C.3 1 <0>  0.5801
   9   C9       17.9106    1.3823   26.0876  C.3 1 <0>  0.2800
  10   N1       12.6398   -1.2375   24.1905  N.2 1 <0> -0.6611
  11   N2       14.2530    0.1448   25.3300 N.am 1 <0> -0.4690
  12   N3       13.1787   -2.2988   22.1927 N.pl3 1 <0> -0.8501
  13   O1       18.7676   -2.3524   26.1510  O.3 1 <0> -1.0332
  14   O2       20.3972   -0.3812   26.2318  O.3 1 <0> -1.0332
  15   O3       12.1201   -0.1992   26.1407  O.2 1 <0> -0.5698
  16   O4       18.9314   -0.7527   24.1606  O.2 1 <0> -1.0332
  17   O5       15.5922    1.9685   25.9264  O.3 1 <0> -0.5601
  18   O6       15.6791    2.1295   28.9823  O.3 1 <0> -0.6802
  19   O7       17.9091   -0.0135   26.3390  O.3 1 <0> -0.5513
  20   P1       19.0969   -0.9440   25.6653  P.3 1 <0>  1.3711
  21   H1       15.5918   -1.1268   22.4991    H 1 <0>  0.1500
  22   H2       16.1435    0.3341   24.4310    H 1 <0>  0.1500
  23   H3       15.7930   -0.7033   27.2341    H 1 <0>  0.0000
  24   H4       14.5977   -0.0023   28.3262    H 1 <0>  0.0000
  25   H5       17.1569    0.7680   28.5559    H 1 <0>  0.0000
  26   H6       16.9535    3.0525   27.0270    H 1 <0>  0.0000
  27   H7       13.7461    1.5199   26.7635    H 1 <0>  0.0000
  28   H8       18.8490    1.8078   26.4511    H 1 <0>  0.0000
  29   H9       17.8303    1.5497   25.0110    H 1 <0>  0.0000
  30  H10       13.8657   -2.4660   21.4978    H 1 <0>  0.3999
  31  H11       12.2648   -2.6824   22.1709    H 1 <0>  0.3999
  32  H12       16.3386    2.6655   29.4289    H 1 <0>  0.3999
@<TRIPOS>BOND
    1     1     2  1
    2     1     3  1
    3     2    11  1
    4     3    10  1
    5     3    12  1
    6     4    10  1
    7     4    11  1
    8     4    15  1
    9     5     6  1
   10     5     8  1
   11     6     7  1
   12     6    18  1
   13     7     9  1
   14     7    17  1
   15     8    11  1
   16     8    17  1
   17     9    19  1
   18    13    20  1
   19    14    20  1
   20    16    20  1
   21    19    20  1
   22     1    21  1
   23     2    22  1
   24     5    23  1
   25     5    24  1
   26     6    25  1
   27     7    26  1
   28     8    27  1
   29     9    28  1
   30     9    29  1
   31    12    30  1
   32    12    31  1
   33    18    32  1

@<TRIPOS>MOLECULE
MOL
   32   33    0    0    0
SMALL
USER_CHARGES


@<TRIPOS>ATOM
   1   C1       14.8822   -0.9719   23.3402  C.2 1 <0> -0.1356
   2   C2       15.1682   -0.1742   24.3672  C.2 1 <0> -0.0410
   3   C3       13.5176   -1.5604   23.3218  C.2 1 <0>  0.4856
   4   C4       12.9659   -0.4739   25.3242  C.2 1 <0>  0.8408
   5   C5       15.3477    0.2384   27.5760  C.3 1 <0>  0.0000
   6   C6       16.3389    1.2633   28.0771  C.3 1 <0>  0.2800
   7   C7       16.7283    2.0138   26.8111  C.3 1 <0>  0.2800
   8   C8       14.6586    0.9757   26.4394  C.3 1 <0>  0.5801
   9   C9       17.9106    1.3823   26.0876  C.3 1 <0>  0.2800
  10   N1       12.6483   -1.3063   24.2646  N.2 1 <0> -0.6611
  11   N2       14.2581    0.1045   25.3735 N.am 1 <0> -0.4690
  12   N3       13.1817   -2.3902   22.2775 N.pl3 1 <0> -0.8501
  13   O1       18.7676   -2.3524   26.1510  O.3 1 <0> -1.0332
  14   O2       20.3972   -0.3812   26.2318  O.3 1 <0> -1.0332
  15   O3       12.1340   -0.2460   26.2043  O.2 1 <0> -0.5698
  16   O4       18.9314   -0.7527   24.1606  O.2 1 <0> -1.0332
  17   O5       15.5862    1.9472   25.9354  O.3 1 <0> -0.5601
  18   O6       15.6938    2.1503   28.9881  O.3 1 <0> -0.6802
  19   O7       17.9091   -0.0135   26.3390  O.3 1 <0> -0.5513
  20   P1       19.0969   -0.9440   25.6653  P.3 1 <0>  1.3711
  21   H1       15.5871   -1.1943   22.5503    H 1 <0>  0.1500
  22   H2       16.1405    0.2972   24.4583    H 1 <0>  0.1500
  23   H3       15.8187   -0.7049   27.2776    H 1 <0>  0.0000
  24   H4       14.6255    0.0010   28.3688    H 1 <0>  0.0000
  25   H5       17.1798    0.7954   28.5694    H 1 <0>  0.0000
  26   H6       16.9464    3.0572   27.0113    H 1 <0>  0.0000
  27   H7       13.7500    1.4948   26.7919    H 1 <0>  0.0000
  28   H8       18.8490    1.8078   26.4511    H 1 <0>  0.0000
  29   H9       17.8303    1.5497   25.0110    H 1 <0>  0.0000
  30  H10       13.8651   -2.5612   21.5799    H 1 <0>  0.3999
  31  H11       12.2709   -2.7816   22.2674    H 1 <0>  0.3999
  32  H12       16.3519    2.6977   29.4227    H 1 <0>  0.3999
@<TRIPOS>BOND
    1     1     2  1
    2     1     3  1
    3     2    11  1
    4     3    10  1
    5     3    12  1
    6     4    10  1
    7     4    11  1
    8     4    15  1
    9     5     6  1
   10     5     8  1
   11     6     7  1
   12     6    18  1
   13     7     9  1
   14     7    17  1
   15     8    11  1
   16     8    17  1
   17     9    19  1
   18    13    20  1
   19    14    20  1
   20    16    20  1
   21    19    20  1
   22     1    21  1
   23     2    22  1
   24     5    23  1
   25     5    24  1
   26     6    25  1
   27     7    26  1
   28     8    27  1
   29     9    28  1
   30     9    29  1
   31    12    30  1
   32    12    31  1
   33    18    32  1

@<TRIPOS>MOLECULE
MOL
   32   33    0    0    0
SMALL
USER_CHARGES


@<TRIPOS>ATOM
   1   C1       14.8823   -1.0338   23.3944  C.2 1 <0> -0.1356
   2   C2       15.1690   -0.2200   24.4085  C.2 1 <0> -0.0410
   3   C3       13.5225   -1.6338   23.3940  C.2 1 <0>  0.4856
   4   C4       12.9762   -0.5248   25.3854  C.2 1 <0>  0.8408
   5   C5       15.3680    0.2377   27.6100  C.3 1 <0>  0.0000
   6   C6       16.3543    1.2773   28.0899  C.3 1 <0>  0.2800
   7   C7       16.7283    2.0138   26.8111  C.3 1 <0>  0.2800
   8   C8       14.6647    0.9538   26.4686  C.3 1 <0>  0.5801
   9   C9       17.9106    1.3823   26.0876  C.3 1 <0>  0.2800
  10   N1       12.6580   -1.3741   24.3395  N.2 1 <0> -0.6611
  11   N2       14.2638    0.0649   25.4175 N.am 1 <0> -0.4690
  12   N3       13.1861   -2.4805   22.3634 N.pl3 1 <0> -0.8501
  13   O1       18.7676   -2.3524   26.1510  O.3 1 <0> -1.0332
  14   O2       20.3972   -0.3812   26.2318  O.3 1 <0> -1.0332
  15   O3       12.1488   -0.2918   26.2684  O.2 1 <0> -0.5698
  16   O4       18.9314   -0.7527   24.1606  O.2 1 <0> -1.0332
  17   O5       15.5806    1.9259   25.9447  O.3 1 <0> -0.5601
  18   O6       15.7083    2.1714   28.9936  O.3 1 <0> -0.6802
  19   O7       17.9091   -0.0135   26.3390  O.3 1 <0> -0.5513
  20   P1       19.0969   -0.9440   25.6653  P.3 1 <0>  1.3711
  21   H1       15.5833   -1.2612   22.6025    H 1 <0>  0.1500
  22   H2       16.1379    0.2606   24.4861    H 1 <0>  0.1500
  23   H3       15.8448   -0.7057   27.3210    H 1 <0>  0.0000
  24   H4       14.6536    0.0050   28.4112    H 1 <0>  0.0000
  25   H5       17.2026    0.8231   28.5824    H 1 <0>  0.0000
  26   H6       16.9391    3.0616   26.9956    H 1 <0>  0.0000
  27   H7       13.7544    1.4700   26.8206    H 1 <0>  0.0000
  28   H8       18.8490    1.8078   26.4511    H 1 <0>  0.0000
  29   H9       17.8303    1.5497   25.0110    H 1 <0>  0.0000
  30  H10       13.8659   -2.6552   21.6632    H 1 <0>  0.3999
  31  H11       12.2786   -2.8794   22.3653    H 1 <0>  0.3999
  32  H12       16.3650    2.7300   29.4158    H 1 <0>  0.3999
@<TRIPOS>BOND
    1     1     2  1
    2     1     3  1
    3     2    11  1
    4     3    10  1
    5     3    12  1
    6     4    10  1
    7     4    11  1
    8     4    15  1
    9     5     6  1
   10     5     8  1
   11     6     7  1
   12     6    18  1
   13     7     9  1
   14     7    17  1
   15     8    11  1
   16     8    17  1
   17     9    19  1
   18    13    20  1
   19    14    20  1
   20    16    20  1
   21    19    20  1
   22     1    21  1
   23     2    22  1
   24     5    23  1
   25     5    24  1
   26     6    25  1
   27     7    26  1
   28     8    27  1
   29     9    28  1
   30     9    29  1
   31    12    30  1
   32    12    31  1
   33    18    32  1

@<TRIPOS>MOLECULE
MOL
   32   33    0    0    0
SMALL
USER_CHARGES


@<TRIPOS>ATOM
   1   C1       14.8833   -1.0951   23.4495  C.2 1 <0> -0.1356
   2   C2       15.1705   -0.2652   24.4503  C.2 1 <0> -0.0410
   3   C3       13.5286   -1.7061   23.4670  C.2 1 <0>  0.4856
   4   C4       12.9873   -0.5747   25.4472  C.2 1 <0>  0.8408
   5   C5       15.3887    0.2375   27.6438  C.3 1 <0>  0.0000
   6   C6       16.3697    1.2917   28.1024  C.3 1 <0>  0.2800
   7   C7       16.7283    2.0138   26.8111  C.3 1 <0>  0.2800
   8   C8       14.6712    0.9322   26.4980  C.3 1 <0>  0.5801
   9   C9       17.9106    1.3823   26.0876  C.3 1 <0>  0.2800
  10   N1       12.6687   -1.4408   24.4152  N.2 1 <0> -0.6611
  11   N2       14.2702    0.0259   25.4620 N.am 1 <0> -0.4690
  12   N3       13.1919   -2.5695   22.4505 N.pl3 1 <0> -0.8501
  13   O1       18.7676   -2.3524   26.1510  O.3 1 <0> -1.0332
  14   O2       20.3972   -0.3812   26.2318  O.3 1 <0> -1.0332
  15   O3       12.1644   -0.3366   26.3331  O.2 1 <0> -0.5698
  16   O4       18.9314   -0.7527   24.1606  O.2 1 <0> -1.0332
  17   O5       15.5752    1.9047   25.9544  O.3 1 <0> -0.5601
  18   O6       15.7227    2.1926   28.9986  O.3 1 <0> -0.6802
  19   O7       17.9091   -0.0135   26.3390  O.3 1 <0> -0.5513
  20   P1       19.0969   -0.9440   25.6653  P.3 1 <0>  1.3711
  21   H1       15.5805   -1.3273   22.6556    H 1 <0>  0.1500
  22   H2       16.1359    0.2244   24.5143    H 1 <0>  0.1500
  23   H3       15.8712   -0.7057   27.3641    H 1 <0>  0.0000
  24   H4       14.6820    0.0099   28.4533    H 1 <0>  0.0000
  25   H5       17.2252    0.8512   28.5948    H 1 <0>  0.0000
  26   H6       16.9317    3.0657   26.9799    H 1 <0>  0.0000
  27   H7       13.7592    1.4457   26.8497    H 1 <0>  0.0000
  28   H8       18.8490    1.8078   26.4511    H 1 <0>  0.0000
  29   H9       17.8303    1.5497   25.0110    H 1 <0>  0.0000
  30  H10       13.8680   -2.7481   21.7478    H 1 <0>  0.3999
  31  H11       12.2877   -2.9759   22.4644    H 1 <0>  0.3999
  32  H12       16.3778    2.7622   29.4085    H 1 <0>  0.3999
@<TRIPOS>BOND
    1     1     2  1
    2     1     3  1
    3     2    11  1
    4     3    10  1
    5     3    12  1
    6     4    10  1
    7     4    11  1
    8     4    15  1
    9     5     6  1
   10     5     8  1
   11     6     7  1
   12     6    18  1
   13     7     9  1
   14     7    17  1
   15     8    11  1
   16     8    17  1
   17     9    19  1
   18    13    20  1
   19    14    20  1
   20    16    20  1
   21    19    20  1
   22     1    21  1
   23     2    22  1
   24     5    23  1
   25     5    24  1
   26     6    25  1
   27     7    26  1
   28     8    27  1
   29     9    28  1
   30     9    29  1
   31    12    30  1
   32    12    31  1
   33    18    32  1

@<TRIPOS>MOLECULE
MOL
   32   33    0    0    0
SMALL
USER_CHARGES


@<TRIPOS>ATOM
   1   C1       14.8852   -1.1555   23.5054  C.2 1 <0> -0.1356
   2   C2       15.1726   -0.3098   24.4928  C.2 1 <0> -0.0410
   3   C3       13.5358   -1.7774   23.5410  C.2 1 <0>  0.4856
   4   C4       12.9994   -0.6237   25.5097  C.2 1 <0>  0.8408
   5   C5       15.4095    0.2380   27.6775  C.3 1 <0>  0.0000
   6   C6       16.3850    1.3064   28.1146  C.3 1 <0>  0.2800
   7   C7       16.7283    2.0138   26.8111  C.3 1 <0>  0.2800
   8   C8       14.6781    0.9112   26.5276  C.3 1 <0>  0.5801
   9   C9       17.9106    1.3823   26.0876  C.3 1 <0>  0.2800
  10   N1       12.6806   -1.5063   24.4918  N.2 1 <0> -0.6611
  11   N2       14.2773   -0.0124   25.5069 N.am 1 <0> -0.4690
  12   N3       13.1990   -2.6572   22.5387 N.pl3 1 <0> -0.8501
  13   O1       18.7676   -2.3524   26.1510  O.3 1 <0> -1.0332
  14   O2       20.3972   -0.3812   26.2318  O.3 1 <0> -1.0332
  15   O3       12.1809   -0.3805   26.3982  O.2 1 <0> -0.5698
  16   O4       18.9314   -0.7527   24.1606  O.2 1 <0> -1.0332
  17   O5       15.5700    1.8835   25.9643  O.3 1 <0> -0.5601
  18   O6       15.7370    2.2140   29.0033  O.3 1 <0> -0.6802
  19   O7       17.9091   -0.0135   26.3390  O.3 1 <0> -0.5513
  20   P1       19.0969   -0.9440   25.6653  P.3 1 <0>  1.3711
  21   H1       15.5786   -1.3928   22.7096    H 1 <0>  0.1500
  22   H2       16.1344    0.1886   24.5431    H 1 <0>  0.1500
  23   H3       15.8979   -0.7049   27.4071    H 1 <0>  0.0000
  24   H4       14.7106    0.0156   28.4951    H 1 <0>  0.0000
  25   H5       17.2477    0.8797   28.6067    H 1 <0>  0.0000
  26   H6       16.9241    3.0695   26.9641    H 1 <0>  0.0000
  27   H7       13.7644    1.4218   26.8790    H 1 <0>  0.0000
  28   H8       18.8490    1.8078   26.4511    H 1 <0>  0.0000
  29   H9       17.8303    1.5497   25.0110    H 1 <0>  0.0000
  30  H10       13.8716   -2.8398   21.8336    H 1 <0>  0.3999
  31  H11       12.2984   -3.0708   22.5647    H 1 <0>  0.3999
  32  H12       16.3902    2.7945   29.4006    H 1 <0>  0.3999
@<TRIPOS>BOND
    1     1     2  1
    2     1     3  1
    3     2    11  1
    4     3    10  1
    5     3    12  1
    6     4    10  1
    7     4    11  1
    8     4    15  1
    9     5     6  1
   10     5     8  1
   11     6     7  1
   12     6    18  1
   13     7     9  1
   14     7    17  1
   15     8    11  1
   16     8    17  1
   17     9    19  1
   18    13    20  1
   19    14    20  1
   20    16    20  1
   21    19    20  1
   22     1    21  1
   23     2    22  1
   24     5    23  1
   25     5    24  1
   26     6    25  1
   27     7    26  1
   28     8    27  1
   29     9    28  1
   30     9    29  1
   31    12    30  1
   32    12    31  1
   33    18    32  1

@<TRIPOS>MOLECULE
MOL
   32   33    0    0    0
SMALL
USER_CHARGES


@<TRIPOS>ATOM
   1   C1       14.8880   -1.2152   23.5620  C.2 1 <0> -0.1356
   2   C2       15.1755   -0.3538   24.5358  C.2 1 <0> -0.0410
   3   C3       13.5441   -1.8476   23.6160  C.2 1 <0>  0.4856
   4   C4       13.0122   -0.6718   25.5727  C.2 1 <0>  0.8408
   5   C5       15.4307    0.2391   27.7110  C.3 1 <0>  0.0000
   6   C6       16.4002    1.3213   28.1266  C.3 1 <0>  0.2800
   7   C7       16.7283    2.0138   26.8111  C.3 1 <0>  0.2800
   8   C8       14.6854    0.8906   26.5575  C.3 1 <0>  0.5801
   9   C9       17.9106    1.3823   26.0876  C.3 1 <0>  0.2800
  10   N1       12.6935   -1.5707   24.5692  N.2 1 <0> -0.6611
  11   N2       14.2850   -0.0500   25.5523 N.am 1 <0> -0.4690
  12   N3       13.2075   -2.7437   22.6281 N.pl3 1 <0> -0.8501
  13   O1       18.7676   -2.3524   26.1510  O.3 1 <0> -1.0332
  14   O2       20.3972   -0.3812   26.2318  O.3 1 <0> -1.0332
  15   O3       12.1981   -0.4232   26.4637  O.2 1 <0> -0.5698
  16   O4       18.9314   -0.7527   24.1606  O.2 1 <0> -1.0332
  17   O5       15.5651    1.8625   25.9747  O.3 1 <0> -0.5601
  18   O6       15.7511    2.2355   29.0075  O.3 1 <0> -0.6802
  19   O7       17.9091   -0.0135   26.3390  O.3 1 <0> -0.5513
  20   P1       19.0969   -0.9440   25.6653  P.3 1 <0>  1.3711
  21   H1       15.5776   -1.4575   22.7645    H 1 <0>  0.1500
  22   H2       16.1333    0.1531   24.5724    H 1 <0>  0.1500
  23   H3       15.9249   -0.7033   27.4498    H 1 <0>  0.0000
  24   H4       14.7395    0.0221   28.5366    H 1 <0>  0.0000
  25   H5       17.2700    0.9085   28.6180    H 1 <0>  0.0000
  26   H6       16.9164    3.0731   26.9484    H 1 <0>  0.0000
  27   H7       13.7700    1.3984   26.9086    H 1 <0>  0.0000
  28   H8       18.8490    1.8078   26.4511    H 1 <0>  0.0000
  29   H9       17.8303    1.5497   25.0110    H 1 <0>  0.0000
  30  H10       13.8765   -2.9303   21.9206    H 1 <0>  0.3999
  31  H11       12.3106   -3.1643   22.6663    H 1 <0>  0.3999
  32  H12       16.4023    2.8268   29.3923    H 1 <0>  0.3999
@<TRIPOS>BOND
    1     1     2  1
    2     1     3  1
    3     2    11  1
    4     3    10  1
    5     3    12  1
    6     4    10  1
    7     4    11  1
    8     4    15  1
    9     5     6  1
   10     5     8  1
   11     6     7  1
   12     6    18  1
   13     7     9  1
   14     7    17  1
   15     8    11  1
   16     8    17  1
   17     9    19  1
   18    13    20  1
   19    14    20  1
   20    16    20  1
   21    19    20  1
   22     1    21  1
   23     2    22  1
   24     5    23  1
   25     5    24  1
   26     6    25  1
   27     7    26  1
   28     8    27  1
   29     9    28  1
   30     9    29  1
   31    12    30  1
   32    12    31  1
   33    18    32  1

@<TRIPOS>MOLECULE
MOL
   32   33    0    0    0
SMALL
USER_CHARGES


@<TRIPOS>ATOM
   1   C1       14.8917   -1.2741   23.6195  C.2 1 <0> -0.1356
   2   C2       15.1790   -0.3972   24.5794  C.2 1 <0> -0.0410
   3   C3       13.5536   -1.9168   23.6917  C.2 1 <0>  0.4856
   4   C4       13.0260   -0.7189   25.6362  C.2 1 <0>  0.8408
   5   C5       15.4520    0.2409   27.7444  C.3 1 <0>  0.0000
   6   C6       16.4155    1.3366   28.1382  C.3 1 <0>  0.2800
   7   C7       16.7283    2.0138   26.8111  C.3 1 <0>  0.2800
   8   C8       14.6931    0.8704   26.5876  C.3 1 <0>  0.5801
   9   C9       17.9106    1.3823   26.0876  C.3 1 <0>  0.2800
  10   N1       12.7076   -1.6340   24.6473  N.2 1 <0> -0.6611
  11   N2       14.2933   -0.0870   25.5982 N.am 1 <0> -0.4690
  12   N3       13.2173   -2.8289   22.7186 N.pl3 1 <0> -0.8501
  13   O1       18.7676   -2.3524   26.1510  O.3 1 <0> -1.0332
  14   O2       20.3972   -0.3812   26.2318  O.3 1 <0> -1.0332
  15   O3       12.2162   -0.4650   26.5298  O.2 1 <0> -0.5698
  16   O4       18.9314   -0.7527   24.1606  O.2 1 <0> -1.0332
  17   O5       15.5604    1.8416   25.9853  O.3 1 <0> -0.5601
  18   O6       15.7651    2.2573   29.0114  O.3 1 <0> -0.6802
  19   O7       17.9091   -0.0135   26.3390  O.3 1 <0> -0.5513
  20   P1       19.0969   -0.9440   25.6653  P.3 1 <0>  1.3711
  21   H1       15.5775   -1.5215   22.8203    H 1 <0>  0.1500
  22   H2       16.1328    0.1181   24.6021    H 1 <0>  0.1500
  23   H3       15.9522   -0.7009   27.4923    H 1 <0>  0.0000
  24   H4       14.7686    0.0294   28.5778    H 1 <0>  0.0000
  25   H5       17.2922    0.9376   28.6288    H 1 <0>  0.0000
  26   H6       16.9085    3.0764   26.9327    H 1 <0>  0.0000
  27   H7       13.7760    1.3754   26.9385    H 1 <0>  0.0000
  28   H8       18.8490    1.8078   26.4511    H 1 <0>  0.0000
  29   H9       17.8303    1.5497   25.0110    H 1 <0>  0.0000
  30  H10       13.8828   -3.0196   22.0088    H 1 <0>  0.3999
  31  H11       12.3243   -3.2564   22.7690    H 1 <0>  0.3999
  32  H12       16.4141    2.8591   29.3833    H 1 <0>  0.3999
@<TRIPOS>BOND
    1     1     2  1
    2     1     3  1
    3     2    11  1
    4     3    10  1
    5     3    12  1
    6     4    10  1
    7     4    11  1
    8     4    15  1
    9     5     6  1
   10     5     8  1
   11     6     7  1
   12     6    18  1
   13     7     9  1
   14     7    17  1
   15     8    11  1
   16     8    17  1
   17     9    19  1
   18    13    20  1
   19    14    20  1
   20    16    20  1
   21    19    20  1
   22     1    21  1
   23     2    22  1
   24     5    23  1
   25     5    24  1
   26     6    25  1
   27     7    26  1
   28     8    27  1
   29     9    28  1
   30     9    29  1
   31    12    30  1
   32    12    31  1
   33    18    32  1

@<TRIPOS>MOLECULE
MOL
   32   33    0    0    0
SMALL
USER_CHARGES


@<TRIPOS>ATOM
   1   C1       14.8963   -1.3321   23.6777  C.2 1 <0> -0.1356
   2   C2       15.1831   -0.4399   24.6235  C.2 1 <0> -0.0410
   3   C3       13.5642   -1.9848   23.7684  C.2 1 <0>  0.4856
   4   C4       13.0405   -0.7650   25.7003  C.2 1 <0>  0.8408
   5   C5       15.4736    0.2433   27.7775  C.3 1 <0>  0.0000
   6   C6       16.4307    1.3521   28.1494  C.3 1 <0>  0.2800
   7   C7       16.7283    2.0138   26.8111  C.3 1 <0>  0.2800
   8   C8       14.7011    0.8508   26.6180  C.3 1 <0>  0.5801
   9   C9       17.9106    1.3823   26.0876  C.3 1 <0>  0.2800
  10   N1       12.7227   -1.6960   24.7262  N.2 1 <0> -0.6611
  11   N2       14.3022   -0.1233   25.6445 N.am 1 <0> -0.4690
  12   N3       13.2285   -2.9128   22.8101 N.pl3 1 <0> -0.8501
  13   O1       18.7676   -2.3524   26.1510  O.3 1 <0> -1.0332
  14   O2       20.3972   -0.3812   26.2318  O.3 1 <0> -1.0332
  15   O3       12.2352   -0.5057   26.5962  O.2 1 <0> -0.5698
  16   O4       18.9314   -0.7527   24.1606  O.2 1 <0> -1.0332
  17   O5       15.5560    1.8208   25.9962  O.3 1 <0> -0.5601
  18   O6       15.7789    2.2792   29.0149  O.3 1 <0> -0.6802
  19   O7       17.9091   -0.0135   26.3390  O.3 1 <0> -0.5513
  20   P1       19.0969   -0.9440   25.6653  P.3 1 <0>  1.3711
  21   H1       15.5784   -1.5847   22.8770    H 1 <0>  0.1500
  22   H2       16.1328    0.0834   24.6324    H 1 <0>  0.1500
  23   H3       15.9798   -0.6977   27.5346    H 1 <0>  0.0000
  24   H4       14.7979    0.0375   28.6187    H 1 <0>  0.0000
  25   H5       17.3141    0.9671   28.6390    H 1 <0>  0.0000
  26   H6       16.9005    3.0794   26.9170    H 1 <0>  0.0000
  27   H7       13.7824    1.3529   26.9686    H 1 <0>  0.0000
  28   H8       18.8490    1.8078   26.4511    H 1 <0>  0.0000
  29   H9       17.8303    1.5497   25.0110    H 1 <0>  0.0000
  30  H10       13.8904   -3.1076   22.0982    H 1 <0>  0.3999
  31  H11       12.3395   -3.3469   22.8728    H 1 <0>  0.3999
  32  H12       16.4255    2.8913   29.3739    H 1 <0>  0.3999
@<TRIPOS>BOND
    1     1     2  1
    2     1     3  1
    3     2    11  1
    4     3    10  1
    5     3    12  1
    6     4    10  1
    7     4    11  1
    8     4    15  1
    9     5     6  1
   10     5     8  1
   11     6     7  1
   12     6    18  1
   13     7     9  1
   14     7    17  1
   15     8    11  1
   16     8    17  1
   17     9    19  1
   18    13    20  1
   19    14    20  1
   20    16    20  1
   21    19    20  1
   22     1    21  1
   23     2    22  1
   24     5    23  1
   25     5    24  1
   26     6    25  1
   27     7    26  1
   28     8    27  1
   29     9    28  1
   30     9    29  1
   31    12    30  1
   32    12    31  1
   33    18    32  1

@<TRIPOS>MOLECULE
MOL
   32   33    0    0    0
SMALL
USER_CHARGES


@<TRIPOS>ATOM
   1   C1       14.9018   -1.3893   23.7366  C.2 1 <0> -0.1356
   2   C2       15.1880   -0.4821   24.6682  C.2 1 <0> -0.0410
   3   C3       13.5758   -2.0517   23.8459  C.2 1 <0>  0.4856
   4   C4       13.0560   -0.8101   25.7649  C.2 1 <0>  0.8408
   5   C5       15.4953    0.2463   27.8105  C.3 1 <0>  0.0000
   6   C6       16.4458    1.3679   28.1604  C.3 1 <0>  0.2800
   7   C7       16.7283    2.0138   26.8111  C.3 1 <0>  0.2800
   8   C8       14.7096    0.8316   26.6485  C.3 1 <0>  0.5801
   9   C9       17.9106    1.3823   26.0876  C.3 1 <0>  0.2800
  10   N1       12.7389   -1.7569   24.8058  N.2 1 <0> -0.6611
  11   N2       14.3118   -0.1588   25.6912 N.am 1 <0> -0.4690
  12   N3       13.2411   -2.9954   22.9027 N.pl3 1 <0> -0.8501
  13   O1       18.7676   -2.3524   26.1510  O.3 1 <0> -1.0332
  14   O2       20.3972   -0.3812   26.2318  O.3 1 <0> -1.0332
  15   O3       12.2549   -0.5453   26.6630  O.2 1 <0> -0.5698
  16   O4       18.9314   -0.7527   24.1606  O.2 1 <0> -1.0332
  17   O5       15.5518    1.8001   26.0075  O.3 1 <0> -0.5601
  18   O6       15.7926    2.3012   29.0180  O.3 1 <0> -0.6802
  19   O7       17.9091   -0.0135   26.3390  O.3 1 <0> -0.5513
  20   P1       19.0969   -0.9440   25.6653  P.3 1 <0>  1.3711
  21   H1       15.5803   -1.6471   22.9345    H 1 <0>  0.1500
  22   H2       16.1333    0.0491   24.6630    H 1 <0>  0.1500
  23   H3       16.0076   -0.6937   27.5766    H 1 <0>  0.0000
  24   H4       14.8275    0.0464   28.6593    H 1 <0>  0.0000
  25   H5       17.3360    0.9969   28.6487    H 1 <0>  0.0000
  26   H6       16.8924    3.0821   26.9014    H 1 <0>  0.0000
  27   H7       13.7892    1.3309   26.9990    H 1 <0>  0.0000
  28   H8       18.8490    1.8078   26.4511    H 1 <0>  0.0000
  29   H9       17.8303    1.5497   25.0110    H 1 <0>  0.0000
  30  H10       13.8995   -3.1944   22.1887    H 1 <0>  0.3999
  31  H11       12.3562   -3.4358   22.9777    H 1 <0>  0.3999
  32  H12       16.4366    2.9235   29.3639    H 1 <0>  0.3999
@<TRIPOS>BOND
    1     1     2  1
    2     1     3  1
    3     2    11  1
    4     3    10  1
    5     3    12  1
    6     4    10  1
    7     4    11  1
    8     4    15  1
    9     5     6  1
   10     5     8  1
   11     6     7  1
   12     6    18  1
   13     7     9  1
   14     7    17  1
   15     8    11  1
   16     8    17  1
   17     9    19  1
   18    13    20  1
   19    14    20  1
   20    16    20  1
   21    19    20  1
   22     1    21  1
   23     2    22  1
   24     5    23  1
   25     5    24  1
   26     6    25  1
   27     7    26  1
   28     8    27  1
   29     9    28  1
   30     9    29  1
   31    12    30  1
   32    12    31  1
   33    18    32  1

@<TRIPOS>MOLECULE
MOL
   32   33    0    0    0
SMALL
USER_CHARGES


@<TRIPOS>ATOM
   1   C1       14.9082   -1.4457   23.7963  C.2 1 <0> -0.1356
   2   C2       15.1935   -0.5235   24.7134  C.2 1 <0> -0.0410
   3   C3       13.5886   -2.1174   23.9242  C.2 1 <0>  0.4856
   4   C4       13.0722   -0.8543   25.8299  C.2 1 <0>  0.8408
   5   C5       15.5173    0.2499   27.8433  C.3 1 <0>  0.0000
   6   C6       16.4609    1.3840   28.1710  C.3 1 <0>  0.2800
   7   C7       16.7283    2.0138   26.8111  C.3 1 <0>  0.2800
   8   C8       14.7184    0.8129   26.6792  C.3 1 <0>  0.5801
   9   C9       17.9106    1.3823   26.0876  C.3 1 <0>  0.2800
  10   N1       12.7562   -1.8165   24.8861  N.2 1 <0> -0.6611
  11   N2       14.3221   -0.1937   25.7383 N.am 1 <0> -0.4690
  12   N3       13.2550   -3.0765   22.9963 N.pl3 1 <0> -0.8501
  13   O1       18.7676   -2.3524   26.1510  O.3 1 <0> -1.0332
  14   O2       20.3972   -0.3812   26.2318  O.3 1 <0> -1.0332
  15   O3       12.2754   -0.5838   26.7303  O.2 1 <0> -0.5698
  16   O4       18.9314   -0.7527   24.1606  O.2 1 <0> -1.0332
  17   O5       15.5479    1.7795   26.0190  O.3 1 <0> -0.5601
  18   O6       15.8061    2.3234   29.0206  O.3 1 <0> -0.6802
  19   O7       17.9091   -0.0135   26.3390  O.3 1 <0> -0.5513
  20   P1       19.0969   -0.9440   25.6653  P.3 1 <0>  1.3711
  21   H1       15.5830   -1.7088   22.9928    H 1 <0>  0.1500
  22   H2       16.1343    0.0153   24.6942    H 1 <0>  0.1500
  23   H3       16.0357   -0.6889   27.6184    H 1 <0>  0.0000
  24   H4       14.8573    0.0560   28.6996    H 1 <0>  0.0000
  25   H5       17.3576    1.0270   28.6578    H 1 <0>  0.0000
  26   H6       16.8841    3.0845   26.8857    H 1 <0>  0.0000
  27   H7       13.7965    1.3093   27.0296    H 1 <0>  0.0000
  28   H8       18.8490    1.8078   26.4511    H 1 <0>  0.0000
  29   H9       17.8303    1.5497   25.0110    H 1 <0>  0.0000
  30  H10       13.9099   -3.2798   22.2802    H 1 <0>  0.3999
  31  H11       12.3743   -3.5232   23.0837    H 1 <0>  0.3999
  32  H12       16.4474    2.9556   29.3535    H 1 <0>  0.3999
@<TRIPOS>BOND
    1     1     2  1
    2     1     3  1
    3     2    11  1
    4     3    10  1
    5     3    12  1
    6     4    10  1
    7     4    11  1
    8     4    15  1
    9     5     6  1
   10     5     8  1
   11     6     7  1
   12     6    18  1
   13     7     9  1
   14     7    17  1
   15     8    11  1
   16     8    17  1
   17     9    19  1
   18    13    20  1
   19    14    20  1
   20    16    20  1
   21    19    20  1
   22     1    21  1
   23     2    22  1
   24     5    23  1
   25     5    24  1
   26     6    25  1
   27     7    26  1
   28     8    27  1
   29     9    28  1
   30     9    29  1
   31    12    30  1
   32    12    31  1
   33    18    32  1

@<TRIPOS>MOLECULE
MOL
   32   33    0    0    0
SMALL
USER_CHARGES


@<TRIPOS>ATOM
   1   C1       14.9155   -1.5012   23.8567  C.2 1 <0> -0.1356
   2   C2       15.1997   -0.5644   24.7592  C.2 1 <0> -0.0410
   3   C3       13.6026   -2.1819   24.0032  C.2 1 <0>  0.4856
   4   C4       13.0893   -0.8973   25.8955  C.2 1 <0>  0.8408
   5   C5       15.5395    0.2542   27.8758  C.3 1 <0>  0.0000
   6   C6       16.4759    1.4003   28.1813  C.3 1 <0>  0.2800
   7   C7       16.7283    2.0138   26.8111  C.3 1 <0>  0.2800
   8   C8       14.7276    0.7947   26.7101  C.3 1 <0>  0.5801
   9   C9       17.9106    1.3823   26.0876  C.3 1 <0>  0.2800
  10   N1       12.7746   -1.8749   24.9671  N.2 1 <0> -0.6611
  11   N2       14.3329   -0.2278   25.7858 N.am 1 <0> -0.4690
  12   N3       13.2703   -3.1563   23.0909 N.pl3 1 <0> -0.8501
  13   O1       18.7676   -2.3524   26.1510  O.3 1 <0> -1.0332
  14   O2       20.3972   -0.3812   26.2318  O.3 1 <0> -1.0332
  15   O3       12.2968   -0.6213   26.7979  O.2 1 <0> -0.5698
  16   O4       18.9314   -0.7527   24.1606  O.2 1 <0> -1.0332
  17   O5       15.5442    1.7591   26.0309  O.3 1 <0> -0.5601
  18   O6       15.8194    2.3458   29.0229  O.3 1 <0> -0.6802
  19   O7       17.9091   -0.0135   26.3390  O.3 1 <0> -0.5513
  20   P1       19.0969   -0.9440   25.6653  P.3 1 <0>  1.3711
  21   H1       15.5867   -1.7696   23.0519    H 1 <0>  0.1500
  22   H2       16.1358   -0.0181   24.7258    H 1 <0>  0.1500
  23   H3       16.0641   -0.6834   27.6598    H 1 <0>  0.0000
  24   H4       14.8873    0.0665   28.7394    H 1 <0>  0.0000
  25   H5       17.3790    1.0573   28.6663    H 1 <0>  0.0000
  26   H6       16.8757    3.0867   26.8701    H 1 <0>  0.0000
  27   H7       13.8041    1.2882   27.0605    H 1 <0>  0.0000
  28   H8       18.8490    1.8078   26.4511    H 1 <0>  0.0000
  29   H9       17.8303    1.5497   25.0110    H 1 <0>  0.0000
  30  H10       13.9217   -3.3638   22.3729    H 1 <0>  0.3999
  31  H11       12.3940   -3.6090   23.1907    H 1 <0>  0.3999
  32  H12       16.4578    2.9877   29.3425    H 1 <0>  0.3999
@<TRIPOS>BOND
    1     1     2  1
    2     1     3  1
    3     2    11  1
    4     3    10  1
    5     3    12  1
    6     4    10  1
    7     4    11  1
    8     4    15  1
    9     5     6  1
   10     5     8  1
   11     6     7  1
   12     6    18  1
   13     7     9  1
   14     7    17  1
   15     8    11  1
   16     8    17  1
   17     9    19  1
   18    13    20  1
   19    14    20  1
   20    16    20  1
   21    19    20  1
   22     1    21  1
   23     2    22  1
   24     5    23  1
   25     5    24  1
   26     6    25  1
   27     7    26  1
   28     8    27  1
   29     9    28  1
   30     9    29  1
   31    12    30  1
   32    12    31  1
   33    18    32  1

@<TRIPOS>MOLECULE
MOL
   32   33    0    0    0
SMALL
USER_CHARGES


@<TRIPOS>ATOM
   1   C1       14.9237   -1.5558   23.9178  C.2 1 <0> -0.1356
   2   C2       15.2066   -0.6045   24.8054  C.2 1 <0> -0.0410
   3   C3       13.6176   -2.2453   24.0831  C.2 1 <0>  0.4856
   4   C4       13.1072   -0.9394   25.9615  C.2 1 <0>  0.8408
   5   C5       15.5619    0.2590   27.9081  C.3 1 <0>  0.0000
   6   C6       16.4909    1.4169   28.1913  C.3 1 <0>  0.2800
   7   C7       16.7283    2.0138   26.8111  C.3 1 <0>  0.2800
   8   C8       14.7371    0.7770   26.7412  C.3 1 <0>  0.5801
   9   C9       17.9106    1.3823   26.0876  C.3 1 <0>  0.2800
  10   N1       12.7940   -1.9320   25.0487  N.2 1 <0> -0.6611
  11   N2       14.3444   -0.2612   25.8337 N.am 1 <0> -0.4690
  12   N3       13.2869   -3.2347   23.1864 N.pl3 1 <0> -0.8501
  13   O1       18.7676   -2.3524   26.1510  O.3 1 <0> -1.0332
  14   O2       20.3972   -0.3812   26.2318  O.3 1 <0> -1.0332
  15   O3       12.3189   -0.6577   26.8658  O.2 1 <0> -0.5698
  16   O4       18.9314   -0.7527   24.1606  O.2 1 <0> -1.0332
  17   O5       15.5408    1.7387   26.0431  O.3 1 <0> -0.5601
  18   O6       15.8326    2.3683   29.0248  O.3 1 <0> -0.6802
  19   O7       17.9091   -0.0135   26.3390  O.3 1 <0> -0.5513
  20   P1       19.0969   -0.9440   25.6653  P.3 1 <0>  1.3711
  21   H1       15.5914   -1.8296   23.1118    H 1 <0>  0.1500
  22   H2       16.1378   -0.0510   24.7578    H 1 <0>  0.1500
  23   H3       16.0927   -0.6770   27.7010    H 1 <0>  0.0000
  24   H4       14.9175    0.0778   28.7790    H 1 <0>  0.0000
  25   H5       17.4003    1.0880   28.6743    H 1 <0>  0.0000
  26   H6       16.8672    3.0886   26.8545    H 1 <0>  0.0000
  27   H7       13.8121    1.2675   27.0916    H 1 <0>  0.0000
  28   H8       18.8490    1.8078   26.4511    H 1 <0>  0.0000
  29   H9       17.8303    1.5497   25.0110    H 1 <0>  0.0000
  30  H10       13.9348   -3.4465   22.4665    H 1 <0>  0.3999
  31  H11       12.4152   -3.6932   23.2988    H 1 <0>  0.3999
  32  H12       16.4679    3.0197   29.3310    H 1 <0>  0.3999
@<TRIPOS>BOND
    1     1     2  1
    2     1     3  1
    3     2    11  1
    4     3    10  1
    5     3    12  1
    6     4    10  1
    7     4    11  1
    8     4    15  1
    9     5     6  1
   10     5     8  1
   11     6     7  1
   12     6    18  1
   13     7     9  1
   14     7    17  1
   15     8    11  1
   16     8    17  1
   17     9    19  1
   18    13    20  1
   19    14    20  1
   20    16    20  1
   21    19    20  1
   22     1    21  1
   23     2    22  1
   24     5    23  1
   25     5    24  1
   26     6    25  1
   27     7    26  1
   28     8    27  1
   29     9    28  1
   30     9    29  1
   31    12    30  1
   32    12    31  1
   33    18    32  1

@<TRIPOS>MOLECULE
MOL
   32   33    0    0    0
SMALL
USER_CHARGES


@<TRIPOS>ATOM
   1   C1       14.9328   -1.6095   23.9795  C.2 1 <0> -0.1356
   2   C2       15.2141   -0.6439   24.8521  C.2 1 <0> -0.0410
   3   C3       13.6337   -2.3074   24.1636  C.2 1 <0>  0.4856
   4   C4       13.1260   -0.9804   26.0279  C.2 1 <0>  0.8408
   5   C5       15.5845    0.2645   27.9402  C.3 1 <0>  0.0000
   6   C6       16.5058    1.4338   28.2009  C.3 1 <0>  0.2800
   7   C7       16.7283    2.0138   26.8111  C.3 1 <0>  0.2800
   8   C8       14.7471    0.7598   26.7724  C.3 1 <0>  0.5801
   9   C9       17.9106    1.3823   26.0876  C.3 1 <0>  0.2800
  10   N1       12.8145   -1.9878   25.1309  N.2 1 <0> -0.6611
  11   N2       14.3565   -0.2938   25.8820 N.am 1 <0> -0.4690
  12   N3       13.3049   -3.3116   23.2829 N.pl3 1 <0> -0.8501
  13   O1       18.7676   -2.3524   26.1510  O.3 1 <0> -1.0332
  14   O2       20.3972   -0.3812   26.2318  O.3 1 <0> -1.0332
  15   O3       12.3419   -0.6929   26.9340  O.2 1 <0> -0.5698
  16   O4       18.9314   -0.7527   24.1606  O.2 1 <0> -1.0332
  17   O5       15.5377    1.7186   26.0555  O.3 1 <0> -0.5601
  18   O6       15.8456    2.3909   29.0263  O.3 1 <0> -0.6802
  19   O7       17.9091   -0.0135   26.3390  O.3 1 <0> -0.5513
  20   P1       19.0969   -0.9440   25.6653  P.3 1 <0>  1.3711
  21   H1       15.5969   -1.8887   23.1725    H 1 <0>  0.1500
  22   H2       16.1403   -0.0835   24.7903    H 1 <0>  0.1500
  23   H3       16.1216   -0.6698   27.7419    H 1 <0>  0.0000
  24   H4       14.9479    0.0898   28.8181    H 1 <0>  0.0000
  25   H5       17.4214    1.1190   28.6817    H 1 <0>  0.0000
  26   H6       16.8585    3.0902   26.8390    H 1 <0>  0.0000
  27   H7       13.8205    1.2474   27.1229    H 1 <0>  0.0000
  28   H8       18.8490    1.8078   26.4511    H 1 <0>  0.0000
  29   H9       17.8303    1.5497   25.0110    H 1 <0>  0.0000
  30  H10       13.9493   -3.5279   22.5612    H 1 <0>  0.3999
  31  H11       12.4378   -3.7757   23.4078    H 1 <0>  0.3999
  32  H12       16.4776    3.0516   29.3190    H 1 <0>  0.3999
@<TRIPOS>BOND
    1     1     2  1
    2     1     3  1
    3     2    11  1
    4     3    10  1
    5     3    12  1
    6     4    10  1
    7     4    11  1
    8     4    15  1
    9     5     6  1
   10     5     8  1
   11     6     7  1
   12     6    18  1
   13     7     9  1
   14     7    17  1
   15     8    11  1
   16     8    17  1
   17     9    19  1
   18    13    20  1
   19    14    20  1
   20    16    20  1
   21    19    20  1
   22     1    21  1
   23     2    22  1
   24     5    23  1
   25     5    24  1
   26     6    25  1
   27     7    26  1
   28     8    27  1
   29     9    28  1
   30     9    29  1
   31    12    30  1
   32    12    31  1
   33    18    32  1

@<TRIPOS>MOLECULE
MOL
   32   33    0    0    0
SMALL
USER_CHARGES


@<TRIPOS>ATOM
   1   C1       14.9428   -1.6623   24.0419  C.2 1 <0> -0.1356
   2   C2       15.2223   -0.6827   24.8993  C.2 1 <0> -0.0410
   3   C3       13.6509   -2.3683   24.2449  C.2 1 <0>  0.4856
   4   C4       13.1455   -1.0203   26.0947  C.2 1 <0>  0.8408
   5   C5       15.6072    0.2707   27.9721  C.3 1 <0>  0.0000
   6   C6       16.5206    1.4509   28.2102  C.3 1 <0>  0.2800
   7   C7       16.7283    2.0138   26.8111  C.3 1 <0>  0.2800
   8   C8       14.7574    0.7431   26.8038  C.3 1 <0>  0.5801
   9   C9       17.9106    1.3823   26.0876  C.3 1 <0>  0.2800
  10   N1       12.8360   -2.0424   25.2137  N.2 1 <0> -0.6611
  11   N2       14.3692   -0.3257   25.9306 N.am 1 <0> -0.4690
  12   N3       13.3241   -3.3870   23.3802 N.pl3 1 <0> -0.8501
  13   O1       18.7676   -2.3524   26.1510  O.3 1 <0> -1.0332
  14   O2       20.3972   -0.3812   26.2318  O.3 1 <0> -1.0332
  15   O3       12.3656   -0.7271   27.0026  O.2 1 <0> -0.5698
  16   O4       18.9314   -0.7527   24.1606  O.2 1 <0> -1.0332
  17   O5       15.5348    1.6985   26.0683  O.3 1 <0> -0.5601
  18   O6       15.8584    2.4137   29.0273  O.3 1 <0> -0.6802
  19   O7       17.9091   -0.0135   26.3390  O.3 1 <0> -0.5513
  20   P1       19.0969   -0.9440   25.6653  P.3 1 <0>  1.3711
  21   H1       15.6034   -1.9469   23.2339    H 1 <0>  0.1500
  22   H2       16.1433   -0.1155   24.8231    H 1 <0>  0.1500
  23   H3       16.1507   -0.6618   27.7825    H 1 <0>  0.0000
  24   H4       14.9784    0.1026   28.8569    H 1 <0>  0.0000
  25   H5       17.4422    1.1502   28.6885    H 1 <0>  0.0000
  26   H6       16.8497    3.0915   26.8235    H 1 <0>  0.0000
  27   H7       13.8293    1.2278   27.1545    H 1 <0>  0.0000
  28   H8       18.8490    1.8078   26.4511    H 1 <0>  0.0000
  29   H9       17.8303    1.5497   25.0110    H 1 <0>  0.0000
  30  H10       13.9652   -3.6078   22.6569    H 1 <0>  0.3999
  31  H11       12.4619   -3.8565   23.5177    H 1 <0>  0.3999
  32  H12       16.4869    3.0835   29.3065    H 1 <0>  0.3999
@<TRIPOS>BOND
    1     1     2  1
    2     1     3  1
    3     2    11  1
    4     3    10  1
    5     3    12  1
    6     4    10  1
    7     4    11  1
    8     4    15  1
    9     5     6  1
   10     5     8  1
   11     6     7  1
   12     6    18  1
   13     7     9  1
   14     7    17  1
   15     8    11  1
   16     8    17  1
   17     9    19  1
   18    13    20  1
   19    14    20  1
   20    16    20  1
   21    19    20  1
   22     1    21  1
   23     2    22  1
   24     5    23  1
   25     5    24  1
   26     6    25  1
   27     7    26  1
   28     8    27  1
   29     9    28  1
   30     9    29  1
   31    12    30  1
   32    12    31  1
   33    18    32  1

@<TRIPOS>MOLECULE
MOL
   32   33    0    0    0
SMALL
USER_CHARGES


@<TRIPOS>ATOM
   1   C1       14.9537   -1.7141   24.1050  C.2 1 <0> -0.1356
   2   C2       15.2311   -0.7207   24.9470  C.2 1 <0> -0.0410
   3   C3       13.6692   -2.4280   24.3269  C.2 1 <0>  0.4856
   4   C4       13.1659   -1.0592   26.1619  C.2 1 <0>  0.8408
   5   C5       15.6302    0.2774   28.0037  C.3 1 <0>  0.0000
   6   C6       16.5354    1.4682   28.2192  C.3 1 <0>  0.2800
   7   C7       16.7283    2.0138   26.8111  C.3 1 <0>  0.2800
   8   C8       14.7680    0.7269   26.8354  C.3 1 <0>  0.5801
   9   C9       17.9106    1.3823   26.0876  C.3 1 <0>  0.2800
  10   N1       12.8586   -2.0957   25.2971  N.2 1 <0> -0.6611
  11   N2       14.3825   -0.3568   25.9795 N.am 1 <0> -0.4690
  12   N3       13.3448   -3.4610   23.4785 N.pl3 1 <0> -0.8501
  13   O1       18.7676   -2.3524   26.1510  O.3 1 <0> -1.0332
  14   O2       20.3972   -0.3812   26.2318  O.3 1 <0> -1.0332
  15   O3       12.3901   -0.7601   27.0714  O.2 1 <0> -0.5698
  16   O4       18.9314   -0.7527   24.1606  O.2 1 <0> -1.0332
  17   O5       15.5322    1.6786   26.0814  O.3 1 <0> -0.5601
  18   O6       15.8710    2.4366   29.0280  O.3 1 <0> -0.6802
  19   O7       17.9091   -0.0135   26.3390  O.3 1 <0> -0.5513
  20   P1       19.0969   -0.9440   25.6653  P.3 1 <0>  1.3711
  21   H1       15.6108   -2.0042   23.2961    H 1 <0>  0.1500
  22   H2       16.1468   -0.1470   24.8564    H 1 <0>  0.1500
  23   H3       16.1800   -0.6530   27.8228    H 1 <0>  0.0000
  24   H4       15.0092    0.1162   28.8952    H 1 <0>  0.0000
  25   H5       17.4628    1.1817   28.6947    H 1 <0>  0.0000
  26   H6       16.8408    3.0925   26.8080    H 1 <0>  0.0000
  27   H7       13.8385    1.2087   27.1862    H 1 <0>  0.0000
  28   H8       18.8490    1.8078   26.4511    H 1 <0>  0.0000
  29   H9       17.8303    1.5497   25.0110    H 1 <0>  0.0000
  30  H10       13.9824   -3.6862   22.7535    H 1 <0>  0.3999
  31  H11       12.4875   -3.9356   23.6286    H 1 <0>  0.3999
  32  H12       16.4960    3.1153   29.2935    H 1 <0>  0.3999
@<TRIPOS>BOND
    1     1     2  1
    2     1     3  1
    3     2    11  1
    4     3    10  1
    5     3    12  1
    6     4    10  1
    7     4    11  1
    8     4    15  1
    9     5     6  1
   10     5     8  1
   11     6     7  1
   12     6    18  1
   13     7     9  1
   14     7    17  1
   15     8    11  1
   16     8    17  1
   17     9    19  1
   18    13    20  1
   19    14    20  1
   20    16    20  1
   21    19    20  1
   22     1    21  1
   23     2    22  1
   24     5    23  1
   25     5    24  1
   26     6    25  1
   27     7    26  1
   28     8    27  1
   29     9    28  1
   30     9    29  1
   31    12    30  1
   32    12    31  1
   33    18    32  1

@<TRIPOS>MOLECULE
MOL
   32   33    0    0    0
SMALL
USER_CHARGES


@<TRIPOS>ATOM
   1   C1       14.9655   -1.7650   24.1686  C.2 1 <0> -0.1356
   2   C2       15.2406   -0.7580   24.9951  C.2 1 <0> -0.0410
   3   C3       13.6886   -2.4864   24.4095  C.2 1 <0>  0.4856
   4   C4       13.1871   -1.0970   26.2295  C.2 1 <0>  0.8408
   5   C5       15.6533    0.2848   28.0350  C.3 1 <0>  0.0000
   6   C6       16.5501    1.4858   28.2278  C.3 1 <0>  0.2800
   7   C7       16.7283    2.0138   26.8111  C.3 1 <0>  0.2800
   8   C8       14.7791    0.7112   26.8671  C.3 1 <0>  0.5801
   9   C9       17.9106    1.3823   26.0876  C.3 1 <0>  0.2800
  10   N1       12.8822   -2.1476   25.3811  N.2 1 <0> -0.6611
  11   N2       14.3965   -0.3871   26.0287 N.am 1 <0> -0.4690
  12   N3       13.3667   -3.5334   23.5775 N.pl3 1 <0> -0.8501
  13   O1       18.7676   -2.3524   26.1510  O.3 1 <0> -1.0332
  14   O2       20.3972   -0.3812   26.2318  O.3 1 <0> -1.0332
  15   O3       12.4154   -0.7919   27.1405  O.2 1 <0> -0.5698
  16   O4       18.9314   -0.7527   24.1606  O.2 1 <0> -1.0332
  17   O5       15.5298    1.6589   26.0947  O.3 1 <0> -0.5601
  18   O6       15.8835    2.4595   29.0283  O.3 1 <0> -0.6802
  19   O7       17.9091   -0.0135   26.3390  O.3 1 <0> -0.5513
  20   P1       19.0969   -0.9440   25.6653  P.3 1 <0>  1.3711
  21   H1       15.6192   -2.0607   23.3589    H 1 <0>  0.1500
  22   H2       16.1509   -0.1781   24.8901    H 1 <0>  0.1500
  23   H3       16.2096   -0.6435   27.8627    H 1 <0>  0.0000
  24   H4       15.0401    0.1306   28.9331    H 1 <0>  0.0000
  25   H5       17.4833    1.2134   28.7004    H 1 <0>  0.0000
  26   H6       16.8318    3.0933   26.7926    H 1 <0>  0.0000
  27   H7       13.8481    1.1900   27.2181    H 1 <0>  0.0000
  28   H8       18.8490    1.8078   26.4511    H 1 <0>  0.0000
  29   H9       17.8303    1.5497   25.0110    H 1 <0>  0.0000
  30  H10       14.0010   -3.7632   22.8511    H 1 <0>  0.3999
  31  H11       12.5145   -4.0131   23.7403    H 1 <0>  0.3999
  32  H12       16.5046    3.1469   29.2800    H 1 <0>  0.3999
@<TRIPOS>BOND
    1     1     2  1
    2     1     3  1
    3     2    11  1
    4     3    10  1
    5     3    12  1
    6     4    10  1
    7     4    11  1
    8     4    15  1
    9     5     6  1
   10     5     8  1
   11     6     7  1
   12     6    18  1
   13     7     9  1
   14     7    17  1
   15     8    11  1
   16     8    17  1
   17     9    19  1
   18    13    20  1
   19    14    20  1
   20    16    20  1
   21    19    20  1
   22     1    21  1
   23     2    22  1
   24     5    23  1
   25     5    24  1
   26     6    25  1
   27     7    26  1
   28     8    27  1
   29     9    28  1
   30     9    29  1
   31    12    30  1
   32    12    31  1
   33    18    32  1

@<TRIPOS>MOLECULE
MOL
   32   33    0    0    0
SMALL
USER_CHARGES


@<TRIPOS>ATOM
   1   C1       14.9781   -1.8149   24.2329  C.2 1 <0> -0.1356
   2   C2       15.2508   -0.7946   25.0436  C.2 1 <0> -0.0410
   3   C3       13.7091   -2.5434   24.4928  C.2 1 <0>  0.4856
   4   C4       13.2091   -1.1337   26.2975  C.2 1 <0>  0.8408
   5   C5       15.6766    0.2928   28.0661  C.3 1 <0>  0.0000
   6   C6       16.5646    1.5037   28.2361  C.3 1 <0>  0.2800
   7   C7       16.7283    2.0138   26.8111  C.3 1 <0>  0.2800
   8   C8       14.7904    0.6961   26.8989  C.3 1 <0>  0.5801
   9   C9       17.9106    1.3823   26.0876  C.3 1 <0>  0.2800
  10   N1       12.9069   -2.1982   25.4655  N.2 1 <0> -0.6611
  11   N2       14.4110   -0.4166   26.0783 N.am 1 <0> -0.4690
  12   N3       13.3899   -3.6043   23.6774 N.pl3 1 <0> -0.8501
  13   O1       18.7676   -2.3524   26.1510  O.3 1 <0> -1.0332
  14   O2       20.3972   -0.3812   26.2318  O.3 1 <0> -1.0332
  15   O3       12.4414   -0.8226   27.2099  O.2 1 <0> -0.5698
  16   O4       18.9314   -0.7527   24.1606  O.2 1 <0> -1.0332
  17   O5       15.5277    1.6394   26.1083  O.3 1 <0> -0.5601
  18   O6       15.8957    2.4826   29.0282  O.3 1 <0> -0.6802
  19   O7       17.9091   -0.0135   26.3390  O.3 1 <0> -0.5513
  20   P1       19.0969   -0.9440   25.6653  P.3 1 <0>  1.3711
  21   H1       15.6284   -2.1162   23.4225    H 1 <0>  0.1500
  22   H2       16.1554   -0.2087   24.9242    H 1 <0>  0.1500
  23   H3       16.2393   -0.6331   27.9023    H 1 <0>  0.0000
  24   H4       15.0711    0.1457   28.9707    H 1 <0>  0.0000
  25   H5       17.5035    1.2454   28.7055    H 1 <0>  0.0000
  26   H6       16.8227    3.0937   26.7773    H 1 <0>  0.0000
  27   H7       13.8581    1.1719   27.2502    H 1 <0>  0.0000
  28   H8       18.8490    1.8078   26.4511    H 1 <0>  0.0000
  29   H9       17.8303    1.5497   25.0110    H 1 <0>  0.0000
  30  H10       14.0209   -3.8387   22.9495    H 1 <0>  0.3999
  31  H11       12.5430   -4.0887   23.8528    H 1 <0>  0.3999
  32  H12       16.5129    3.1784   29.2661    H 1 <0>  0.3999
@<TRIPOS>BOND
    1     1     2  1
    2     1     3  1
    3     2    11  1
    4     3    10  1
    5     3    12  1
    6     4    10  1
    7     4    11  1
    8     4    15  1
    9     5     6  1
   10     5     8  1
   11     6     7  1
   12     6    18  1
   13     7     9  1
   14     7    17  1
   15     8    11  1
   16     8    17  1
   17     9    19  1
   18    13    20  1
   19    14    20  1
   20    16    20  1
   21    19    20  1
   22     1    21  1
   23     2    22  1
   24     5    23  1
   25     5    24  1
   26     6    25  1
   27     7    26  1
   28     8    27  1
   29     9    28  1
   30     9    29  1
   31    12    30  1
   32    12    31  1
   33    18    32  1

@<TRIPOS>MOLECULE
MOL
   32   33    0    0    0
SMALL
USER_CHARGES


@<TRIPOS>ATOM
   1   C1       14.9916   -1.8639   24.2977  C.2 1 <0> -0.1356
   2   C2       15.2616   -0.8304   25.0926  C.2 1 <0> -0.0410
   3   C3       13.7306   -2.5992   24.5767  C.2 1 <0>  0.4856
   4   C4       13.2319   -1.1692   26.3657  C.2 1 <0>  0.8408
   5   C5       15.7000    0.3013   28.0969  C.3 1 <0>  0.0000
   6   C6       16.5791    1.5217   28.2440  C.3 1 <0>  0.2800
   7   C7       16.7283    2.0138   26.8111  C.3 1 <0>  0.2800
   8   C8       14.8022    0.6815   26.9308  C.3 1 <0>  0.5801
   9   C9       17.9106    1.3823   26.0876  C.3 1 <0>  0.2800
  10   N1       12.9326   -2.2474   25.5505  N.2 1 <0> -0.6611
  11   N2       14.4262   -0.4454   26.1281 N.am 1 <0> -0.4690
  12   N3       13.4145   -3.6737   23.7781 N.pl3 1 <0> -0.8501
  13   O1       18.7676   -2.3524   26.1510  O.3 1 <0> -1.0332
  14   O2       20.3972   -0.3812   26.2318  O.3 1 <0> -1.0332
  15   O3       12.4682   -0.8522   27.2794  O.2 1 <0> -0.5698
  16   O4       18.9314   -0.7527   24.1606  O.2 1 <0> -1.0332
  17   O5       15.5258    1.6200   26.1222  O.3 1 <0> -0.5601
  18   O6       15.9078    2.5058   29.0276  O.3 1 <0> -0.6802
  19   O7       17.9091   -0.0135   26.3390  O.3 1 <0> -0.5513
  20   P1       19.0969   -0.9440   25.6653  P.3 1 <0>  1.3711
  21   H1       15.6386   -2.1707   23.4868    H 1 <0>  0.1500
  22   H2       16.1604   -0.2387   24.9586    H 1 <0>  0.1500
  23   H3       16.2692   -0.6220   27.9415    H 1 <0>  0.0000
  24   H4       15.1023    0.1616   29.0077    H 1 <0>  0.0000
  25   H5       17.5234    1.2776   28.7100    H 1 <0>  0.0000
  26   H6       16.8134    3.0939   26.7620    H 1 <0>  0.0000
  27   H7       13.8684    1.1543   27.2824    H 1 <0>  0.0000
  28   H8       18.8490    1.8078   26.4511    H 1 <0>  0.0000
  29   H9       17.8303    1.5497   25.0110    H 1 <0>  0.0000
  30  H10       14.0421   -3.9127   23.0488    H 1 <0>  0.3999
  31  H11       12.5729   -4.1626   23.9662    H 1 <0>  0.3999
  32  H12       16.5208    3.2098   29.2516    H 1 <0>  0.3999
@<TRIPOS>BOND
    1     1     2  1
    2     1     3  1
    3     2    11  1
    4     3    10  1
    5     3    12  1
    6     4    10  1
    7     4    11  1
    8     4    15  1
    9     5     6  1
   10     5     8  1
   11     6     7  1
   12     6    18  1
   13     7     9  1
   14     7    17  1
   15     8    11  1
   16     8    17  1
   17     9    19  1
   18    13    20  1
   19    14    20  1
   20    16    20  1
   21    19    20  1
   22     1    21  1
   23     2    22  1
   24     5    23  1
   25     5    24  1
   26     6    25  1
   27     7    26  1
   28     8    27  1
   29     9    28  1
   30     9    29  1
   31    12    30  1
   32    12    31  1
   33    18    32  1

@<TRIPOS>MOLECULE
MOL
   32   33    0    0    0
SMALL
USER_CHARGES


@<TRIPOS>ATOM
   1   C1       15.0060   -1.9118   24.3630  C.2 1 <0> -0.1356
   2   C2       15.2731   -0.8654   25.1419  C.2 1 <0> -0.0410
   3   C3       13.7532   -2.6537   24.6612  C.2 1 <0>  0.4856
   4   C4       13.2554   -1.2037   26.4343  C.2 1 <0>  0.8408
   5   C5       15.7236    0.3105   28.1274  C.3 1 <0>  0.0000
   6   C6       16.5935    1.5400   28.2516  C.3 1 <0>  0.2800
   7   C7       16.7283    2.0138   26.8111  C.3 1 <0>  0.2800
   8   C8       14.8143    0.6674   26.9629  C.3 1 <0>  0.5801
   9   C9       17.9106    1.3823   26.0876  C.3 1 <0>  0.2800
  10   N1       12.9593   -2.2952   25.6359  N.2 1 <0> -0.6611
  11   N2       14.4419   -0.4733   26.1782 N.am 1 <0> -0.4690
  12   N3       13.4403   -3.7414   23.8795 N.pl3 1 <0> -0.8501
  13   O1       18.7676   -2.3524   26.1510  O.3 1 <0> -1.0332
  14   O2       20.3972   -0.3812   26.2318  O.3 1 <0> -1.0332
  15   O3       12.4957   -0.8806   27.3492  O.2 1 <0> -0.5698
  16   O4       18.9314   -0.7527   24.1606  O.2 1 <0> -1.0332
  17   O5       15.5242    1.6008   26.1364  O.3 1 <0> -0.5601
  18   O6       15.9197    2.5291   29.0267  O.3 1 <0> -0.6802
  19   O7       17.9091   -0.0135   26.3390  O.3 1 <0> -0.5513
  20   P1       19.0969   -0.9440   25.6653  P.3 1 <0>  1.3711
  21   H1       15.6497   -2.2243   23.5517    H 1 <0>  0.1500
  22   H2       16.1659   -0.2683   24.9934    H 1 <0>  0.1500
  23   H3       16.2994   -0.6101   27.9803    H 1 <0>  0.0000
  24   H4       15.1336    0.1783   29.0444    H 1 <0>  0.0000
  25   H5       17.5431    1.3100   28.7139    H 1 <0>  0.0000
  26   H6       16.8041    3.0938   26.7468    H 1 <0>  0.0000
  27   H7       13.8791    1.1373   27.3149    H 1 <0>  0.0000
  28   H8       18.8490    1.8078   26.4511    H 1 <0>  0.0000
  29   H9       17.8303    1.5497   25.0110    H 1 <0>  0.0000
  30  H10       14.0647   -3.9852   23.1490    H 1 <0>  0.3999
  31  H11       12.6042   -4.2347   24.0803    H 1 <0>  0.3999
  32  H12       16.5284    3.2411   29.2367    H 1 <0>  0.3999
@<TRIPOS>BOND
    1     1     2  1
    2     1     3  1
    3     2    11  1
    4     3    10  1
    5     3    12  1
    6     4    10  1
    7     4    11  1
    8     4    15  1
    9     5     6  1
   10     5     8  1
   11     6     7  1
   12     6    18  1
   13     7     9  1
   14     7    17  1
   15     8    11  1
   16     8    17  1
   17     9    19  1
   18    13    20  1
   19    14    20  1
   20    16    20  1
   21    19    20  1
   22     1    21  1
   23     2    22  1
   24     5    23  1
   25     5    24  1
   26     6    25  1
   27     7    26  1
   28     8    27  1
   29     9    28  1
   30     9    29  1
   31    12    30  1
   32    12    31  1
   33    18    32  1

@<TRIPOS>MOLECULE
MOL
   32   33    0    0    0
SMALL
USER_CHARGES


@<TRIPOS>ATOM
   1   C1       15.0213   -1.9588   24.4290  C.2 1 <0> -0.1356
   2   C2       15.2852   -0.8997   25.1916  C.2 1 <0> -0.0410
   3   C3       13.7769   -2.7068   24.7462  C.2 1 <0>  0.4856
   4   C4       13.2797   -1.2370   26.5032  C.2 1 <0>  0.8408
   5   C5       15.7473    0.3203   28.1576  C.3 1 <0>  0.0000
   6   C6       16.6078    1.5585   28.2588  C.3 1 <0>  0.2800
   7   C7       16.7283    2.0138   26.8111  C.3 1 <0>  0.2800
   8   C8       14.8267    0.6539   26.9950  C.3 1 <0>  0.5801
   9   C9       17.9106    1.3823   26.0876  C.3 1 <0>  0.2800
  10   N1       12.9870   -2.3417   25.7218  N.2 1 <0> -0.6611
  11   N2       14.4582   -0.5004   26.2286 N.am 1 <0> -0.4690
  12   N3       13.4675   -3.8076   23.9816 N.pl3 1 <0> -0.8501
  13   O1       18.7676   -2.3524   26.1510  O.3 1 <0> -1.0332
  14   O2       20.3972   -0.3812   26.2318  O.3 1 <0> -1.0332
  15   O3       12.5239   -0.9078   27.4191  O.2 1 <0> -0.5698
  16   O4       18.9314   -0.7527   24.1606  O.2 1 <0> -1.0332
  17   O5       15.5229    1.5817   26.1508  O.3 1 <0> -0.5601
  18   O6       15.9313    2.5524   29.0254  O.3 1 <0> -0.6802
  19   O7       17.9091   -0.0135   26.3390  O.3 1 <0> -0.5513
  20   P1       19.0969   -0.9440   25.6653  P.3 1 <0>  1.3711
  21   H1       15.6617   -2.2769   23.6172    H 1 <0>  0.1500
  22   H2       16.1719   -0.2973   25.0286    H 1 <0>  0.1500
  23   H3       16.3297   -0.5975   28.0188    H 1 <0>  0.0000
  24   H4       15.1650    0.1957   29.0805    H 1 <0>  0.0000
  25   H5       17.5626    1.3426   28.7173    H 1 <0>  0.0000
  26   H6       16.7946    3.0934   26.7316    H 1 <0>  0.0000
  27   H7       13.8902    1.1208   27.3474    H 1 <0>  0.0000
  28   H8       18.8490    1.8078   26.4511    H 1 <0>  0.0000
  29   H9       17.8303    1.5497   25.0110    H 1 <0>  0.0000
  30  H10       14.0886   -4.0561   23.2499    H 1 <0>  0.3999
  31  H11       12.6369   -4.3050   24.1951    H 1 <0>  0.3999
  32  H12       16.5356    3.2722   29.2212    H 1 <0>  0.3999
@<TRIPOS>BOND
    1     1     2  1
    2     1     3  1
    3     2    11  1
    4     3    10  1
    5     3    12  1
    6     4    10  1
    7     4    11  1
    8     4    15  1
    9     5     6  1
   10     5     8  1
   11     6     7  1
   12     6    18  1
   13     7     9  1
   14     7    17  1
   15     8    11  1
   16     8    17  1
   17     9    19  1
   18    13    20  1
   19    14    20  1
   20    16    20  1
   21    19    20  1
   22     1    21  1
   23     2    22  1
   24     5    23  1
   25     5    24  1
   26     6    25  1
   27     7    26  1
   28     8    27  1
   29     9    28  1
   30     9    29  1
   31    12    30  1
   32    12    31  1
   33    18    32  1

@<TRIPOS>MOLECULE
MOL
   32   33    0    0    0
SMALL
USER_CHARGES


@<TRIPOS>ATOM
   1   C1       15.0374   -2.0047   24.4954  C.2 1 <0> -0.1356
   2   C2       15.2979   -0.9332   25.2417  C.2 1 <0> -0.0410
   3   C3       13.8016   -2.7586   24.8318  C.2 1 <0>  0.4856
   4   C4       13.3049   -1.2692   26.5723  C.2 1 <0>  0.8408
   5   C5       15.7711    0.3308   28.1874  C.3 1 <0>  0.0000
   6   C6       16.6220    1.5772   28.2656  C.3 1 <0>  0.2800
   7   C7       16.7283    2.0138   26.8111  C.3 1 <0>  0.2800
   8   C8       14.8395    0.6409   27.0272  C.3 1 <0>  0.5801
   9   C9       17.9106    1.3823   26.0876  C.3 1 <0>  0.2800
  10   N1       13.0158   -2.3868   25.8081  N.2 1 <0> -0.6611
  11   N2       14.4752   -0.5267   26.2792 N.am 1 <0> -0.4690
  12   N3       13.4959   -3.8721   24.0844 N.pl3 1 <0> -0.8501
  13   O1       18.7676   -2.3524   26.1510  O.3 1 <0> -1.0332
  14   O2       20.3972   -0.3812   26.2318  O.3 1 <0> -1.0332
  15   O3       12.5529   -0.9338   27.4892  O.2 1 <0> -0.5698
  16   O4       18.9314   -0.7527   24.1606  O.2 1 <0> -1.0332
  17   O5       15.5218    1.5629   26.1655  O.3 1 <0> -0.5601
  18   O6       15.9428    2.5758   29.0237  O.3 1 <0> -0.6802
  19   O7       17.9091   -0.0135   26.3390  O.3 1 <0> -0.5513
  20   P1       19.0969   -0.9440   25.6653  P.3 1 <0>  1.3711
  21   H1       15.6746   -2.3285   23.6833    H 1 <0>  0.1500
  22   H2       16.1784   -0.3258   25.0641    H 1 <0>  0.1500
  23   H3       16.3601   -0.5840   28.0569    H 1 <0>  0.0000
  24   H4       15.1966    0.2138   29.1162    H 1 <0>  0.0000
  25   H5       17.5819    1.3755   28.7200    H 1 <0>  0.0000
  26   H6       16.7850    3.0928   26.7166    H 1 <0>  0.0000
  27   H7       13.9017    1.1048   27.3801    H 1 <0>  0.0000
  28   H8       18.8490    1.8078   26.4511    H 1 <0>  0.0000
  29   H9       17.8303    1.5497   25.0110    H 1 <0>  0.0000
  30  H10       14.1138   -4.1255   23.3516    H 1 <0>  0.3999
  31  H11       12.6711   -4.3734   24.3107    H 1 <0>  0.3999
  32  H12       16.5424    3.3032   29.2053    H 1 <0>  0.3999
@<TRIPOS>BOND
    1     1     2  1
    2     1     3  1
    3     2    11  1
    4     3    10  1
    5     3    12  1
    6     4    10  1
    7     4    11  1
    8     4    15  1
    9     5     6  1
   10     5     8  1
   11     6     7  1
   12     6    18  1
   13     7     9  1
   14     7    17  1
   15     8    11  1
   16     8    17  1
   17     9    19  1
   18    13    20  1
   19    14    20  1
   20    16    20  1
   21    19    20  1
   22     1    21  1
   23     2    22  1
   24     5    23  1
   25     5    24  1
   26     6    25  1
   27     7    26  1
   28     8    27  1
   29     9    28  1
   30     9    29  1
   31    12    30  1
   32    12    31  1
   33    18    32  1

@<TRIPOS>MOLECULE
MOL
   32   33    0    0    0
SMALL
USER_CHARGES


@<TRIPOS>ATOM
   1   C1       15.0544   -2.0495   24.5623  C.2 1 <0> -0.1356
   2   C2       15.3113   -0.9660   25.2922  C.2 1 <0> -0.0410
   3   C3       13.8274   -2.8089   24.9179  C.2 1 <0>  0.4856
   4   C4       13.3307   -1.3003   26.6416  C.2 1 <0>  0.8408
   5   C5       15.7951    0.3418   28.2170  C.3 1 <0>  0.0000
   6   C6       16.6361    1.5962   28.2721  C.3 1 <0>  0.2800
   7   C7       16.7283    2.0138   26.8111  C.3 1 <0>  0.2800
   8   C8       14.8526    0.6284   27.0595  C.3 1 <0>  0.5801
   9   C9       17.9106    1.3823   26.0876  C.3 1 <0>  0.2800
  10   N1       13.0455   -2.4304   25.8947  N.2 1 <0> -0.6611
  11   N2       14.4927   -0.5522   26.3300 N.am 1 <0> -0.4690
  12   N3       13.5256   -3.9351   24.1878 N.pl3 1 <0> -0.8501
  13   O1       18.7676   -2.3524   26.1510  O.3 1 <0> -1.0332
  14   O2       20.3972   -0.3812   26.2318  O.3 1 <0> -1.0332
  15   O3       12.5826   -0.9587   27.5594  O.2 1 <0> -0.5698
  16   O4       18.9314   -0.7527   24.1606  O.2 1 <0> -1.0332
  17   O5       15.5210    1.5442   26.1805  O.3 1 <0> -0.5601
  18   O6       15.9540    2.5993   29.0215  O.3 1 <0> -0.6802
  19   O7       17.9091   -0.0135   26.3390  O.3 1 <0> -0.5513
  20   P1       19.0969   -0.9440   25.6653  P.3 1 <0>  1.3711
  21   H1       15.6884   -2.3791   23.7501    H 1 <0>  0.1500
  22   H2       16.1854   -0.3537   25.0999    H 1 <0>  0.1500
  23   H3       16.3908   -0.5698   28.0945    H 1 <0>  0.0000
  24   H4       15.2282    0.2327   29.1515    H 1 <0>  0.0000
  25   H5       17.6008    1.4085   28.7222    H 1 <0>  0.0000
  26   H6       16.7753    3.0918   26.7016    H 1 <0>  0.0000
  27   H7       13.9135    1.0893   27.4130    H 1 <0>  0.0000
  28   H8       18.8490    1.8078   26.4511    H 1 <0>  0.0000
  29   H9       17.8303    1.5497   25.0110    H 1 <0>  0.0000
  30  H10       14.1403   -4.1932   23.4541    H 1 <0>  0.3999
  31  H11       12.7067   -4.4400   24.4269    H 1 <0>  0.3999
  32  H12       16.5488    3.3340   29.1890    H 1 <0>  0.3999
@<TRIPOS>BOND
    1     1     2  1
    2     1     3  1
    3     2    11  1
    4     3    10  1
    5     3    12  1
    6     4    10  1
    7     4    11  1
    8     4    15  1
    9     5     6  1
   10     5     8  1
   11     6     7  1
   12     6    18  1
   13     7     9  1
   14     7    17  1
   15     8    11  1
   16     8    17  1
   17     9    19  1
   18    13    20  1
   19    14    20  1
   20    16    20  1
   21    19    20  1
   22     1    21  1
   23     2    22  1
   24     5    23  1
   25     5    24  1
   26     6    25  1
   27     7    26  1
   28     8    27  1
   29     9    28  1
   30     9    29  1
   31    12    30  1
   32    12    31  1
   33    18    32  1

@<TRIPOS>MOLECULE
MOL
   32   33    0    0    0
SMALL
USER_CHARGES


@<TRIPOS>ATOM
   1   C1       15.0723   -2.0933   24.6297  C.2 1 <0> -0.1356
   2   C2       15.3254   -0.9979   25.3430  C.2 1 <0> -0.0410
   3   C3       13.8542   -2.8579   25.0044  C.2 1 <0>  0.4856
   4   C4       13.3573   -1.3301   26.7112  C.2 1 <0>  0.8408
   5   C5       15.8192    0.3534   28.2462  C.3 1 <0>  0.0000
   6   C6       16.6501    1.6153   28.2783  C.3 1 <0>  0.2800
   7   C7       16.7283    2.0138   26.8111  C.3 1 <0>  0.2800
   8   C8       14.8660    0.6165   27.0919  C.3 1 <0>  0.5801
   9   C9       17.9106    1.3823   26.0876  C.3 1 <0>  0.2800
  10   N1       13.0762   -2.4727   25.9818  N.2 1 <0> -0.6611
  11   N2       14.5107   -0.5768   26.3811 N.am 1 <0> -0.4690
  12   N3       13.5566   -3.9963   24.2919 N.pl3 1 <0> -0.8501
  13   O1       18.7676   -2.3524   26.1510  O.3 1 <0> -1.0332
  14   O2       20.3972   -0.3812   26.2318  O.3 1 <0> -1.0332
  15   O3       12.6130   -0.9823   27.6297  O.2 1 <0> -0.5698
  16   O4       18.9314   -0.7527   24.1606  O.2 1 <0> -1.0332
  17   O5       15.5205    1.5258   26.1957  O.3 1 <0> -0.5601
  18   O6       15.9651    2.6229   29.0190  O.3 1 <0> -0.6802
  19   O7       17.9091   -0.0135   26.3390  O.3 1 <0> -0.5513
  20   P1       19.0969   -0.9440   25.6653  P.3 1 <0>  1.3711
  21   H1       15.7031   -2.4287   23.8174    H 1 <0>  0.1500
  22   H2       16.1929   -0.3811   25.1361    H 1 <0>  0.1500
  23   H3       16.4215   -0.5548   28.1317    H 1 <0>  0.0000
  24   H4       15.2600    0.2524   29.1862    H 1 <0>  0.0000
  25   H5       17.6195    1.4417   28.7238    H 1 <0>  0.0000
  26   H6       16.7655    3.0906   26.6867    H 1 <0>  0.0000
  27   H7       13.9257    1.0744   27.4459    H 1 <0>  0.0000
  28   H8       18.8490    1.8078   26.4511    H 1 <0>  0.0000
  29   H9       17.8303    1.5497   25.0110    H 1 <0>  0.0000
  30  H10       14.1681   -4.2593   23.5572    H 1 <0>  0.3999
  31  H11       12.7436   -4.5047   24.5438    H 1 <0>  0.3999
  32  H12       16.5549    3.3647   29.1722    H 1 <0>  0.3999
@<TRIPOS>BOND
    1     1     2  1
    2     1     3  1
    3     2    11  1
    4     3    10  1
    5     3    12  1
    6     4    10  1
    7     4    11  1
    8     4    15  1
    9     5     6  1
   10     5     8  1
   11     6     7  1
   12     6    18  1
   13     7     9  1
   14     7    17  1
   15     8    11  1
   16     8    17  1
   17     9    19  1
   18    13    20  1
   19    14    20  1
   20    16    20  1
   21    19    20  1
   22     1    21  1
   23     2    22  1
   24     5    23  1
   25     5    24  1
   26     6    25  1
   27     7    26  1
   28     8    27  1
   29     9    28  1
   30     9    29  1
   31    12    30  1
   32    12    31  1
   33    18    32  1

@<TRIPOS>MOLECULE
MOL
   32   33    0    0    0
SMALL
USER_CHARGES


@<TRIPOS>ATOM
   1   C1       15.0909   -2.1361   24.6975  C.2 1 <0> -0.1356
   2   C2       15.3400   -1.0290   25.3941  C.2 1 <0> -0.0410
   3   C3       13.8820   -2.9055   25.0914  C.2 1 <0>  0.4856
   4   C4       13.3847   -1.3589   26.7810  C.2 1 <0>  0.8408
   5   C5       15.8434    0.3656   28.2752  C.3 1 <0>  0.0000
   6   C6       16.6640    1.6346   28.2841  C.3 1 <0>  0.2800
   7   C7       16.7283    2.0138   26.8111  C.3 1 <0>  0.2800
   8   C8       14.8798    0.6051   27.1243  C.3 1 <0>  0.5801
   9   C9       17.9106    1.3823   26.0876  C.3 1 <0>  0.2800
  10   N1       13.1079   -2.5135   26.0691  N.2 1 <0> -0.6611
  11   N2       14.5294   -0.6006   26.4323 N.am 1 <0> -0.4690
  12   N3       13.5888   -4.0559   24.3966 N.pl3 1 <0> -0.8501
  13   O1       18.7676   -2.3524   26.1510  O.3 1 <0> -1.0332
  14   O2       20.3972   -0.3812   26.2318  O.3 1 <0> -1.0332
  15   O3       12.6441   -1.0047   27.7001  O.2 1 <0> -0.5698
  16   O4       18.9314   -0.7527   24.1606  O.2 1 <0> -1.0332
  17   O5       15.5202    1.5075   26.2112  O.3 1 <0> -0.5601
  18   O6       15.9759    2.6465   29.0161  O.3 1 <0> -0.6802
  19   O7       17.9091   -0.0135   26.3390  O.3 1 <0> -0.5513
  20   P1       19.0969   -0.9440   25.6653  P.3 1 <0>  1.3711
  21   H1       15.7188   -2.4772   23.8853    H 1 <0>  0.1500
  22   H2       16.2009   -0.4080   25.1726    H 1 <0>  0.1500
  23   H3       16.4525   -0.5391   28.1685    H 1 <0>  0.0000
  24   H4       15.2918    0.2727   29.2204    H 1 <0>  0.0000
  25   H5       17.6380    1.4751   28.7248    H 1 <0>  0.0000
  26   H6       16.7557    3.0891   26.6719    H 1 <0>  0.0000
  27   H7       13.9383    1.0600   27.4790    H 1 <0>  0.0000
  28   H8       18.8490    1.8078   26.4511    H 1 <0>  0.0000
  29   H9       17.8303    1.5497   25.0110    H 1 <0>  0.0000
  30  H10       14.1972   -4.3238   23.6611    H 1 <0>  0.3999
  31  H11       12.7819   -4.5675   24.6612    H 1 <0>  0.3999
  32  H12       16.5606    3.3951   29.1549    H 1 <0>  0.3999
@<TRIPOS>BOND
    1     1     2  1
    2     1     3  1
    3     2    11  1
    4     3    10  1
    5     3    12  1
    6     4    10  1
    7     4    11  1
    8     4    15  1
    9     5     6  1
   10     5     8  1
   11     6     7  1
   12     6    18  1
   13     7     9  1
   14     7    17  1
   15     8    11  1
   16     8    17  1
   17     9    19  1
   18    13    20  1
   19    14    20  1
   20    16    20  1
   21    19    20  1
   22     1    21  1
   23     2    22  1
   24     5    23  1
   25     5    24  1
   26     6    25  1
   27     7    26  1
   28     8    27  1
   29     9    28  1
   30     9    29  1
   31    12    30  1
   32    12    31  1
   33    18    32  1

@<TRIPOS>MOLECULE
MOL
   32   33    0    0    0
SMALL
USER_CHARGES


@<TRIPOS>ATOM
   1   C1       15.1105   -2.1778   24.7658  C.2 1 <0> -0.1356
   2   C2       15.3553   -1.0593   25.4455  C.2 1 <0> -0.0410
   3   C3       13.9108   -2.9517   25.1789  C.2 1 <0>  0.4856
   4   C4       13.4128   -1.3864   26.8510  C.2 1 <0>  0.8408
   5   C5       15.8677    0.3784   28.3037  C.3 1 <0>  0.0000
   6   C6       16.6777    1.6541   28.2895  C.3 1 <0>  0.2800
   7   C7       16.7283    2.0138   26.8111  C.3 1 <0>  0.2800
   8   C8       14.8939    0.5943   27.1568  C.3 1 <0>  0.5801
   9   C9       17.9106    1.3823   26.0876  C.3 1 <0>  0.2800
  10   N1       13.1405   -2.5528   26.1568  N.2 1 <0> -0.6611
  11   N2       14.5486   -0.6235   26.4837 N.am 1 <0> -0.4690
  12   N3       13.6223   -4.1138   24.5018 N.pl3 1 <0> -0.8501
  13   O1       18.7676   -2.3524   26.1510  O.3 1 <0> -1.0332
  14   O2       20.3972   -0.3812   26.2318  O.3 1 <0> -1.0332
  15   O3       12.6759   -1.0259   27.7706  O.2 1 <0> -0.5698
  16   O4       18.9314   -0.7527   24.1606  O.2 1 <0> -1.0332
  17   O5       15.5202    1.4895   26.2269  O.3 1 <0> -0.5601
  18   O6       15.9865    2.6702   29.0127  O.3 1 <0> -0.6802
  19   O7       17.9091   -0.0135   26.3390  O.3 1 <0> -0.5513
  20   P1       19.0969   -0.9440   25.6653  P.3 1 <0>  1.3711
  21   H1       15.7353   -2.5247   23.9537    H 1 <0>  0.1500
  22   H2       16.2094   -0.4343   25.2093    H 1 <0>  0.1500
  23   H3       16.4835   -0.5226   28.2049    H 1 <0>  0.0000
  24   H4       15.3237    0.2938   29.2542    H 1 <0>  0.0000
  25   H5       17.6562    1.5086   28.7252    H 1 <0>  0.0000
  26   H6       16.7457    3.0873   26.6571    H 1 <0>  0.0000
  27   H7       13.9512    1.0462   27.5121    H 1 <0>  0.0000
  28   H8       18.8490    1.8078   26.4511    H 1 <0>  0.0000
  29   H9       17.8303    1.5497   25.0110    H 1 <0>  0.0000
  30  H10       14.2276   -4.3866   23.7656    H 1 <0>  0.3999
  31  H11       12.8216   -4.6283   24.7792    H 1 <0>  0.3999
  32  H12       16.5659    3.4254   29.1372    H 1 <0>  0.3999
@<TRIPOS>BOND
    1     1     2  1
    2     1     3  1
    3     2    11  1
    4     3    10  1
    5     3    12  1
    6     4    10  1
    7     4    11  1
    8     4    15  1
    9     5     6  1
   10     5     8  1
   11     6     7  1
   12     6    18  1
   13     7     9  1
   14     7    17  1
   15     8    11  1
   16     8    17  1
   17     9    19  1
   18    13    20  1
   19    14    20  1
   20    16    20  1
   21    19    20  1
   22     1    21  1
   23     2    22  1
   24     5    23  1
   25     5    24  1
   26     6    25  1
   27     7    26  1
   28     8    27  1
   29     9    28  1
   30     9    29  1
   31    12    30  1
   32    12    31  1
   33    18    32  1

@<TRIPOS>MOLECULE
MOL
   32   33    0    0    0
SMALL
USER_CHARGES


@<TRIPOS>ATOM
   1   C1       15.1308   -2.2183   24.8345  C.2 1 <0> -0.1356
   2   C2       15.3712   -1.0888   25.4972  C.2 1 <0> -0.0410
   3   C3       13.9407   -2.9965   25.2667  C.2 1 <0>  0.4856
   4   C4       13.4417   -1.4127   26.9211  C.2 1 <0>  0.8408
   5   C5       15.8921    0.3917   28.3319  C.3 1 <0>  0.0000
   6   C6       16.6913    1.6738   28.2945  C.3 1 <0>  0.2800
   7   C7       16.7283    2.0138   26.8111  C.3 1 <0>  0.2800
   8   C8       14.9084    0.5841   27.1893  C.3 1 <0>  0.5801
   9   C9       17.9106    1.3823   26.0876  C.3 1 <0>  0.2800
  10   N1       13.1741   -2.5907   26.2448  N.2 1 <0> -0.6611
  11   N2       14.5684   -0.6456   26.5353 N.am 1 <0> -0.4690
  12   N3       13.6570   -4.1700   24.6075 N.pl3 1 <0> -0.8501
  13   O1       18.7676   -2.3524   26.1510  O.3 1 <0> -1.0332
  14   O2       20.3972   -0.3812   26.2318  O.3 1 <0> -1.0332
  15   O3       12.7084   -1.0459   27.8411  O.2 1 <0> -0.5698
  16   O4       18.9314   -0.7527   24.1606  O.2 1 <0> -1.0332
  17   O5       15.5205    1.4717   26.2429  O.3 1 <0> -0.5601
  18   O6       15.9968    2.6939   29.0090  O.3 1 <0> -0.6802
  19   O7       17.9091   -0.0135   26.3390  O.3 1 <0> -0.5513
  20   P1       19.0969   -0.9440   25.6653  P.3 1 <0>  1.3711
  21   H1       15.7527   -2.5711   24.0226    H 1 <0>  0.1500
  22   H2       16.2183   -0.4600   25.2464    H 1 <0>  0.1500
  23   H3       16.5147   -0.5054   28.2408    H 1 <0>  0.0000
  24   H4       15.3557    0.3157   29.2874    H 1 <0>  0.0000
  25   H5       17.6741    1.5423   28.7251    H 1 <0>  0.0000
  26   H6       16.7356    3.0852   26.6425    H 1 <0>  0.0000
  27   H7       13.9645    1.0330   27.5454    H 1 <0>  0.0000
  28   H8       18.8490    1.8078   26.4511    H 1 <0>  0.0000
  29   H9       17.8303    1.5497   25.0110    H 1 <0>  0.0000
  30  H10       14.2593   -4.4478   23.8707    H 1 <0>  0.3999
  31  H11       12.8626   -4.6873   24.8977    H 1 <0>  0.3999
  32  H12       16.5709    3.4555   29.1190    H 1 <0>  0.3999
@<TRIPOS>BOND
    1     1     2  1
    2     1     3  1
    3     2    11  1
    4     3    10  1
    5     3    12  1
    6     4    10  1
    7     4    11  1
    8     4    15  1
    9     5     6  1
   10     5     8  1
   11     6     7  1
   12     6    18  1
   13     7     9  1
   14     7    17  1
   15     8    11  1
   16     8    17  1
   17     9    19  1
   18    13    20  1
   19    14    20  1
   20    16    20  1
   21    19    20  1
   22     1    21  1
   23     2    22  1
   24     5    23  1
   25     5    24  1
   26     6    25  1
   27     7    26  1
   28     8    27  1
   29     9    28  1
   30     9    29  1
   31    12    30  1
   32    12    31  1
   33    18    32  1

@<TRIPOS>MOLECULE
MOL
   32   33    0    0    0
SMALL
USER_CHARGES


@<TRIPOS>ATOM
   1   C1       15.1520   -2.2578   24.9036  C.2 1 <0> -0.1356
   2   C2       15.3877   -1.1174   25.5492  C.2 1 <0> -0.0410
   3   C3       13.9716   -3.0398   25.3550  C.2 1 <0>  0.4856
   4   C4       13.4712   -1.4379   26.9914  C.2 1 <0>  0.8408
   5   C5       15.9166    0.4057   28.3598  C.3 1 <0>  0.0000
   6   C6       16.7048    1.6937   28.2992  C.3 1 <0>  0.2800
   7   C7       16.7283    2.0138   26.8111  C.3 1 <0>  0.2800
   8   C8       14.9231    0.5744   27.2219  C.3 1 <0>  0.5801
   9   C9       17.9106    1.3823   26.0876  C.3 1 <0>  0.2800
  10   N1       13.2087   -2.6271   26.3330  N.2 1 <0> -0.6611
  11   N2       14.5887   -0.6668   26.5870 N.am 1 <0> -0.4690
  12   N3       13.6929   -4.2244   24.7138 N.pl3 1 <0> -0.8501
  13   O1       18.7676   -2.3524   26.1510  O.3 1 <0> -1.0332
  14   O2       20.3972   -0.3812   26.2318  O.3 1 <0> -1.0332
  15   O3       12.7416   -1.0647   27.9116  O.2 1 <0> -0.5698
  16   O4       18.9314   -0.7527   24.1606  O.2 1 <0> -1.0332
  17   O5       15.5210    1.4541   26.2591  O.3 1 <0> -0.5601
  18   O6       16.0070    2.7176   29.0049  O.3 1 <0> -0.6802
  19   O7       17.9091   -0.0135   26.3390  O.3 1 <0> -0.5513
  20   P1       19.0969   -0.9440   25.6653  P.3 1 <0>  1.3711
  21   H1       15.7709   -2.6164   24.0920    H 1 <0>  0.1500
  22   H2       16.2277   -0.4851   25.2837    H 1 <0>  0.1500
  23   H3       16.5460   -0.4874   28.2762    H 1 <0>  0.0000
  24   H4       15.3877    0.3382   29.3200    H 1 <0>  0.0000
  25   H5       17.6917    1.5762   28.7243    H 1 <0>  0.0000
  26   H6       16.7255    3.0828   26.6280    H 1 <0>  0.0000
  27   H7       13.9781    1.0203   27.5787    H 1 <0>  0.0000
  28   H8       18.8490    1.8078   26.4511    H 1 <0>  0.0000
  29   H9       17.8303    1.5497   25.0110    H 1 <0>  0.0000
  30  H10       14.2922   -4.5072   23.9764    H 1 <0>  0.3999
  31  H11       12.9050   -4.7443   25.0167    H 1 <0>  0.3999
  32  H12       16.5754    3.4853   29.1004    H 1 <0>  0.3999
@<TRIPOS>BOND
    1     1     2  1
    2     1     3  1
    3     2    11  1
    4     3    10  1
    5     3    12  1
    6     4    10  1
    7     4    11  1
    8     4    15  1
    9     5     6  1
   10     5     8  1
   11     6     7  1
   12     6    18  1
   13     7     9  1
   14     7    17  1
   15     8    11  1
   16     8    17  1
   17     9    19  1
   18    13    20  1
   19    14    20  1
   20    16    20  1
   21    19    20  1
   22     1    21  1
   23     2    22  1
   24     5    23  1
   25     5    24  1
   26     6    25  1
   27     7    26  1
   28     8    27  1
   29     9    28  1
   30     9    29  1
   31    12    30  1
   32    12    31  1
   33    18    32  1

@<TRIPOS>MOLECULE
MOL
   32   33    0    0    0
SMALL
USER_CHARGES


@<TRIPOS>ATOM
   1   C1       15.1741   -2.2961   24.9731  C.2 1 <0> -0.1356
   2   C2       15.4049   -1.1452   25.6014  C.2 1 <0> -0.0410
   3   C3       14.0034   -3.0816   25.4436  C.2 1 <0>  0.4856
   4   C4       13.5015   -1.4619   27.0618  C.2 1 <0>  0.8408
   5   C5       15.9412    0.4202   28.3872  C.3 1 <0>  0.0000
   6   C6       16.7182    1.7138   28.3036  C.3 1 <0>  0.2800
   7   C7       16.7283    2.0138   26.8111  C.3 1 <0>  0.2800
   8   C8       14.9382    0.5653   27.2545  C.3 1 <0>  0.5801
   9   C9       17.9106    1.3823   26.0876  C.3 1 <0>  0.2800
  10   N1       13.2441   -2.6620   26.4214  N.2 1 <0> -0.6611
  11   N2       14.6096   -0.6872   26.6389 N.am 1 <0> -0.4690
  12   N3       13.7300   -4.2771   24.8205 N.pl3 1 <0> -0.8501
  13   O1       18.7676   -2.3524   26.1510  O.3 1 <0> -1.0332
  14   O2       20.3972   -0.3812   26.2318  O.3 1 <0> -1.0332
  15   O3       12.7754   -1.0822   27.9822  O.2 1 <0> -0.5698
  16   O4       18.9314   -0.7527   24.1606  O.2 1 <0> -1.0332
  17   O5       15.5218    1.4367   26.2755  O.3 1 <0> -0.5601
  18   O6       16.0169    2.7413   29.0004  O.3 1 <0> -0.6802
  19   O7       17.9091   -0.0135   26.3390  O.3 1 <0> -0.5513
  20   P1       19.0969   -0.9440   25.6653  P.3 1 <0>  1.3711
  21   H1       15.7901   -2.6606   24.1619    H 1 <0>  0.1500
  22   H2       16.2376   -0.5097   25.3213    H 1 <0>  0.1500
  23   H3       16.5774   -0.4687   28.3112    H 1 <0>  0.0000
  24   H4       15.4198    0.3614   29.3522    H 1 <0>  0.0000
  25   H5       17.7090    1.6102   28.7230    H 1 <0>  0.0000
  26   H6       16.7153    3.0802   26.6136    H 1 <0>  0.0000
  27   H7       13.9921    1.0082   27.6121    H 1 <0>  0.0000
  28   H8       18.8490    1.8078   26.4511    H 1 <0>  0.0000
  29   H9       17.8303    1.5497   25.0110    H 1 <0>  0.0000
  30  H10       14.3264   -4.5650   24.0826    H 1 <0>  0.3999
  31  H11       12.9487   -4.7993   25.1361    H 1 <0>  0.3999
  32  H12       16.5796    3.5149   29.0814    H 1 <0>  0.3999
@<TRIPOS>BOND
    1     1     2  1
    2     1     3  1
    3     2    11  1
    4     3    10  1
    5     3    12  1
    6     4    10  1
    7     4    11  1
    8     4    15  1
    9     5     6  1
   10     5     8  1
   11     6     7  1
   12     6    18  1
   13     7     9  1
   14     7    17  1
   15     8    11  1
   16     8    17  1
   17     9    19  1
   18    13    20  1
   19    14    20  1
   20    16    20  1
   21    19    20  1
   22     1    21  1
   23     2    22  1
   24     5    23  1
   25     5    24  1
   26     6    25  1
   27     7    26  1
   28     8    27  1
   29     9    28  1
   30     9    29  1
   31    12    30  1
   32    12    31  1
   33    18    32  1

@<TRIPOS>MOLECULE
MOL
   32   33    0    0    0
SMALL
USER_CHARGES


@<TRIPOS>ATOM
   1   C1       15.1969   -2.3334   25.0429  C.2 1 <0> -0.1356
   2   C2       15.4226   -1.1721   25.6539  C.2 1 <0> -0.0410
   3   C3       14.0362   -3.1220   25.5325  C.2 1 <0>  0.4856
   4   C4       13.5325   -1.4846   27.1323  C.2 1 <0>  0.8408
   5   C5       15.9658    0.4354   28.4143  C.3 1 <0>  0.0000
   6   C6       16.7314    1.7340   28.3075  C.3 1 <0>  0.2800
   7   C7       16.7283    2.0138   26.8111  C.3 1 <0>  0.2800
   8   C8       14.9535    0.5567   27.2870  C.3 1 <0>  0.5801
   9   C9       17.9106    1.3823   26.0876  C.3 1 <0>  0.2800
  10   N1       13.2805   -2.6954   26.5101  N.2 1 <0> -0.6611
  11   N2       14.6310   -0.7066   26.6909 N.am 1 <0> -0.4690
  12   N3       13.7684   -4.3281   24.9276 N.pl3 1 <0> -0.8501
  13   O1       18.7676   -2.3524   26.1510  O.3 1 <0> -1.0332
  14   O2       20.3972   -0.3812   26.2318  O.3 1 <0> -1.0332
  15   O3       12.8098   -1.0985   28.0527  O.2 1 <0> -0.5698
  16   O4       18.9314   -0.7527   24.1606  O.2 1 <0> -1.0332
  17   O5       15.5228    1.4196   26.2922  O.3 1 <0> -0.5601
  18   O6       16.0266    2.7651   28.9955  O.3 1 <0> -0.6802
  19   O7       17.9091   -0.0135   26.3390  O.3 1 <0> -0.5513
  20   P1       19.0969   -0.9440   25.6653  P.3 1 <0>  1.3711
  21   H1       15.8101   -2.7037   24.2323    H 1 <0>  0.1500
  22   H2       16.2480   -0.5336   25.3592    H 1 <0>  0.1500
  23   H3       16.6088   -0.4493   28.3457    H 1 <0>  0.0000
  24   H4       15.4519    0.3853   29.3837    H 1 <0>  0.0000
  25   H5       17.7260    1.6442   28.7211    H 1 <0>  0.0000
  26   H6       16.7050    3.0772   26.5993    H 1 <0>  0.0000
  27   H7       14.0064    0.9966   27.6455    H 1 <0>  0.0000
  28   H8       18.8490    1.8078   26.4511    H 1 <0>  0.0000
  29   H9       17.8303    1.5497   25.0110    H 1 <0>  0.0000
  30  H10       14.3618   -4.6210   24.1894    H 1 <0>  0.3999
  31  H11       12.9937   -4.8523   25.2560    H 1 <0>  0.3999
  32  H12       16.5834    3.5444   29.0619    H 1 <0>  0.3999
@<TRIPOS>BOND
    1     1     2  1
    2     1     3  1
    3     2    11  1
    4     3    10  1
    5     3    12  1
    6     4    10  1
    7     4    11  1
    8     4    15  1
    9     5     6  1
   10     5     8  1
   11     6     7  1
   12     6    18  1
   13     7     9  1
   14     7    17  1
   15     8    11  1
   16     8    17  1
   17     9    19  1
   18    13    20  1
   19    14    20  1
   20    16    20  1
   21    19    20  1
   22     1    21  1
   23     2    22  1
   24     5    23  1
   25     5    24  1
   26     6    25  1
   27     7    26  1
   28     8    27  1
   29     9    28  1
   30     9    29  1
   31    12    30  1
   32    12    31  1
   33    18    32  1

@<TRIPOS>MOLECULE
MOL
   32   33    0    0    0
SMALL
USER_CHARGES


@<TRIPOS>ATOM
   1   C1       15.2205   -2.3694   25.1130  C.2 1 <0> -0.1356
   2   C2       15.4409   -1.1982   25.7066  C.2 1 <0> -0.0410
   3   C3       14.0701   -3.1609   25.6217  C.2 1 <0>  0.4856
   4   C4       13.5642   -1.5061   27.2028  C.2 1 <0>  0.8408
   5   C5       15.9905    0.4510   28.4410  C.3 1 <0>  0.0000
   6   C6       16.7445    1.7544   28.3111  C.3 1 <0>  0.2800
   7   C7       16.7283    2.0138   26.8111  C.3 1 <0>  0.2800
   8   C8       14.9692    0.5488   27.3196  C.3 1 <0>  0.5801
   9   C9       17.9106    1.3823   26.0876  C.3 1 <0>  0.2800
  10   N1       13.3179   -2.7273   26.5989  N.2 1 <0> -0.6611
  11   N2       14.6529   -0.7252   26.7430 N.am 1 <0> -0.4690
  12   N3       13.8079   -4.3772   25.0351 N.pl3 1 <0> -0.8501
  13   O1       18.7676   -2.3524   26.1510  O.3 1 <0> -1.0332
  14   O2       20.3972   -0.3812   26.2318  O.3 1 <0> -1.0332
  15   O3       12.8450   -1.1135   28.1232  O.2 1 <0> -0.5698
  16   O4       18.9314   -0.7527   24.1606  O.2 1 <0> -1.0332
  17   O5       15.5241    1.4027   26.3091  O.3 1 <0> -0.5601
  18   O6       16.0361    2.7889   28.9902  O.3 1 <0> -0.6802
  19   O7       17.9091   -0.0135   26.3390  O.3 1 <0> -0.5513
  20   P1       19.0969   -0.9440   25.6653  P.3 1 <0>  1.3711
  21   H1       15.8310   -2.7457   24.3030    H 1 <0>  0.1500
  22   H2       16.2589   -0.5570   25.3973    H 1 <0>  0.1500
  23   H3       16.6404   -0.4291   28.3797    H 1 <0>  0.0000
  24   H4       15.4840    0.4099   29.4148    H 1 <0>  0.0000
  25   H5       17.7428    1.6784   28.7186    H 1 <0>  0.0000
  26   H6       16.6946    3.0740   26.5851    H 1 <0>  0.0000
  27   H7       14.0210    0.9857   27.6790    H 1 <0>  0.0000
  28   H8       18.8490    1.8078   26.4511    H 1 <0>  0.0000
  29   H9       17.8303    1.5497   25.0110    H 1 <0>  0.0000
  30  H10       14.3984   -4.6752   24.2966    H 1 <0>  0.3999
  31  H11       13.0400   -4.9033   25.3762    H 1 <0>  0.3999
  32  H12       16.5868    3.5735   29.0420    H 1 <0>  0.3999
@<TRIPOS>BOND
    1     1     2  1
    2     1     3  1
    3     2    11  1
    4     3    10  1
    5     3    12  1
    6     4    10  1
    7     4    11  1
    8     4    15  1
    9     5     6  1
   10     5     8  1
   11     6     7  1
   12     6    18  1
   13     7     9  1
   14     7    17  1
   15     8    11  1
   16     8    17  1
   17     9    19  1
   18    13    20  1
   19    14    20  1
   20    16    20  1
   21    19    20  1
   22     1    21  1
   23     2    22  1
   24     5    23  1
   25     5    24  1
   26     6    25  1
   27     7    26  1
   28     8    27  1
   29     9    28  1
   30     9    29  1
   31    12    30  1
   32    12    31  1
   33    18    32  1

@<TRIPOS>MOLECULE
MOL
   32   33    0    0    0
SMALL
USER_CHARGES


@<TRIPOS>ATOM
   1   C1       15.2450   -2.4044   25.1834  C.2 1 <0> -0.1356
   2   C2       15.4599   -1.2234   25.7596  C.2 1 <0> -0.0410
   3   C3       14.1048   -3.1983   25.7111  C.2 1 <0>  0.4856
   4   C4       13.5965   -1.5265   27.2734  C.2 1 <0>  0.8408
   5   C5       16.0153    0.4673   28.4673  C.3 1 <0>  0.0000
   6   C6       16.7574    1.7749   28.3143  C.3 1 <0>  0.2800
   7   C7       16.7283    2.0138   26.8111  C.3 1 <0>  0.2800
   8   C8       14.9852    0.5414   27.3522  C.3 1 <0>  0.5801
   9   C9       17.9106    1.3823   26.0876  C.3 1 <0>  0.2800
  10   N1       13.3561   -2.7577   26.6879  N.2 1 <0> -0.6611
  11   N2       14.6754   -0.7429   26.7951 N.am 1 <0> -0.4690
  12   N3       13.8487   -4.4246   25.1430 N.pl3 1 <0> -0.8501
  13   O1       18.7676   -2.3524   26.1510  O.3 1 <0> -1.0332
  14   O2       20.3972   -0.3812   26.2318  O.3 1 <0> -1.0332
  15   O3       12.8807   -1.1273   28.1937  O.2 1 <0> -0.5698
  16   O4       18.9314   -0.7527   24.1606  O.2 1 <0> -1.0332
  17   O5       15.5257    1.3860   26.3262  O.3 1 <0> -0.5601
  18   O6       16.0453    2.8127   28.9845  O.3 1 <0> -0.6802
  19   O7       17.9091   -0.0135   26.3390  O.3 1 <0> -0.5513
  20   P1       19.0969   -0.9440   25.6653  P.3 1 <0>  1.3711
  21   H1       15.8527   -2.7866   24.3742    H 1 <0>  0.1500
  22   H2       16.2702   -0.5797   25.4356    H 1 <0>  0.1500
  23   H3       16.6720   -0.4083   28.4131    H 1 <0>  0.0000
  24   H4       15.5161    0.4352   29.4452    H 1 <0>  0.0000
  25   H5       17.7592    1.7127   28.7155    H 1 <0>  0.0000
  26   H6       16.6841    3.0706   26.5711    H 1 <0>  0.0000
  27   H7       14.0360    0.9753   27.7126    H 1 <0>  0.0000
  28   H8       18.8490    1.8078   26.4511    H 1 <0>  0.0000
  29   H9       17.8303    1.5497   25.0110    H 1 <0>  0.0000
  30  H10       14.4363   -4.7277   24.4043    H 1 <0>  0.3999
  31  H11       13.0876   -4.9523   25.4967    H 1 <0>  0.3999
  32  H12       16.5898    3.6025   29.0217    H 1 <0>  0.3999
@<TRIPOS>BOND
    1     1     2  1
    2     1     3  1
    3     2    11  1
    4     3    10  1
    5     3    12  1
    6     4    10  1
    7     4    11  1
    8     4    15  1
    9     5     6  1
   10     5     8  1
   11     6     7  1
   12     6    18  1
   13     7     9  1
   14     7    17  1
   15     8    11  1
   16     8    17  1
   17     9    19  1
   18    13    20  1
   19    14    20  1
   20    16    20  1
   21    19    20  1
   22     1    21  1
   23     2    22  1
   24     5    23  1
   25     5    24  1
   26     6    25  1
   27     7    26  1
   28     8    27  1
   29     9    28  1
   30     9    29  1
   31    12    30  1
   32    12    31  1
   33    18    32  1

@<TRIPOS>MOLECULE
MOL
   32   33    0    0    0
SMALL
USER_CHARGES


@<TRIPOS>ATOM
   1   C1       15.2702   -2.4381   25.2542  C.2 1 <0> -0.1356
   2   C2       15.4794   -1.2477   25.8127  C.2 1 <0> -0.0410
   3   C3       14.1406   -3.2342   25.8008  C.2 1 <0>  0.4856
   4   C4       13.6295   -1.5455   27.3441  C.2 1 <0>  0.8408
   5   C5       16.0402    0.4841   28.4932  C.3 1 <0>  0.0000
   6   C6       16.7702    1.7956   28.3172  C.3 1 <0>  0.2800
   7   C7       16.7283    2.0138   26.8111  C.3 1 <0>  0.2800
   8   C8       15.0014    0.5345   27.3847  C.3 1 <0>  0.5801
   9   C9       17.9106    1.3823   26.0876  C.3 1 <0>  0.2800
  10   N1       13.3952   -2.7865   26.7770  N.2 1 <0> -0.6611
  11   N2       14.6984   -0.7596   26.8474 N.am 1 <0> -0.4690
  12   N3       13.8905   -4.4702   25.2512 N.pl3 1 <0> -0.8501
  13   O1       18.7676   -2.3524   26.1510  O.3 1 <0> -1.0332
  14   O2       20.3972   -0.3812   26.2318  O.3 1 <0> -1.0332
  15   O3       12.9170   -1.1398   28.2640  O.2 1 <0> -0.5698
  16   O4       18.9314   -0.7527   24.1606  O.2 1 <0> -1.0332
  17   O5       15.5275    1.3696   26.3435  O.3 1 <0> -0.5601
  18   O6       16.0543    2.8364   28.9784  O.3 1 <0> -0.6802
  19   O7       17.9091   -0.0135   26.3390  O.3 1 <0> -0.5513
  20   P1       19.0969   -0.9440   25.6653  P.3 1 <0>  1.3711
  21   H1       15.8753   -2.8263   24.4457    H 1 <0>  0.1500
  22   H2       16.2820   -0.6018   25.4742    H 1 <0>  0.1500
  23   H3       16.7037   -0.3867   28.4461    H 1 <0>  0.0000
  24   H4       15.5483    0.4612   29.4751    H 1 <0>  0.0000
  25   H5       17.7753    1.7471   28.7118    H 1 <0>  0.0000
  26   H6       16.6736    3.0668   26.5571    H 1 <0>  0.0000
  27   H7       14.0513    0.9655   27.7461    H 1 <0>  0.0000
  28   H8       18.8490    1.8078   26.4511    H 1 <0>  0.0000
  29   H9       17.8303    1.5497   25.0110    H 1 <0>  0.0000
  30  H10       14.4754   -4.7784   24.5124    H 1 <0>  0.3999
  31  H11       13.1365   -4.9993   25.6176    H 1 <0>  0.3999
  32  H12       16.5925    3.6311   29.0009    H 1 <0>  0.3999
@<TRIPOS>BOND
    1     1     2  1
    2     1     3  1
    3     2    11  1
    4     3    10  1
    5     3    12  1
    6     4    10  1
    7     4    11  1
    8     4    15  1
    9     5     6  1
   10     5     8  1
   11     6     7  1
   12     6    18  1
   13     7     9  1
   14     7    17  1
   15     8    11  1
   16     8    17  1
   17     9    19  1
   18    13    20  1
   19    14    20  1
   20    16    20  1
   21    19    20  1
   22     1    21  1
   23     2    22  1
   24     5    23  1
   25     5    24  1
   26     6    25  1
   27     7    26  1
   28     8    27  1
   29     9    28  1
   30     9    29  1
   31    12    30  1
   32    12    31  1
   33    18    32  1

@<TRIPOS>MOLECULE
MOL
   32   33    0    0    0
SMALL
USER_CHARGES


@<TRIPOS>ATOM
   1   C1       15.2963   -2.4707   25.3252  C.2 1 <0> -0.1356
   2   C2       15.4995   -1.2711   25.8660  C.2 1 <0> -0.0410
   3   C3       14.1772   -3.2686   25.8908  C.2 1 <0>  0.4856
   4   C4       13.6632   -1.5634   27.4147  C.2 1 <0>  0.8408
   5   C5       16.0650    0.5015   28.5187  C.3 1 <0>  0.0000
   6   C6       16.7828    1.8164   28.3196  C.3 1 <0>  0.2800
   7   C7       16.7283    2.0138   26.8111  C.3 1 <0>  0.2800
   8   C8       15.0180    0.5283   27.4172  C.3 1 <0>  0.5801
   9   C9       17.9106    1.3823   26.0876  C.3 1 <0>  0.2800
  10   N1       13.4352   -2.8139   26.8662  N.2 1 <0> -0.6611
  11   N2       14.7219   -0.7755   26.8996 N.am 1 <0> -0.4690
  12   N3       13.9336   -4.5139   25.3597 N.pl3 1 <0> -0.8501
  13   O1       18.7676   -2.3524   26.1510  O.3 1 <0> -1.0332
  14   O2       20.3972   -0.3812   26.2318  O.3 1 <0> -1.0332
  15   O3       12.9540   -1.1511   28.3343  O.2 1 <0> -0.5698
  16   O4       18.9314   -0.7527   24.1606  O.2 1 <0> -1.0332
  17   O5       15.5296    1.3534   26.3610  O.3 1 <0> -0.5601
  18   O6       16.0630    2.8602   28.9720  O.3 1 <0> -0.6802
  19   O7       17.9091   -0.0135   26.3390  O.3 1 <0> -0.5513
  20   P1       19.0969   -0.9440   25.6653  P.3 1 <0>  1.3711
  21   H1       15.8987   -2.8648   24.5177    H 1 <0>  0.1500
  22   H2       16.2942   -0.6233   25.5130    H 1 <0>  0.1500
  23   H3       16.7355   -0.3644   28.4785    H 1 <0>  0.0000
  24   H4       15.5804    0.4878   29.5043    H 1 <0>  0.0000
  25   H5       17.7911    1.7816   28.7076    H 1 <0>  0.0000
  26   H6       16.6630    3.0628   26.5433    H 1 <0>  0.0000
  27   H7       14.0669    0.9562   27.7797    H 1 <0>  0.0000
  28   H8       18.8490    1.8078   26.4511    H 1 <0>  0.0000
  29   H9       17.8303    1.5497   25.0110    H 1 <0>  0.0000
  30  H10       14.5157   -4.8274   24.6209    H 1 <0>  0.3999
  31  H11       13.1866   -5.0442   25.7387    H 1 <0>  0.3999
  32  H12       16.5947    3.6595   28.9798    H 1 <0>  0.3999
@<TRIPOS>BOND
    1     1     2  1
    2     1     3  1
    3     2    11  1
    4     3    10  1
    5     3    12  1
    6     4    10  1
    7     4    11  1
    8     4    15  1
    9     5     6  1
   10     5     8  1
   11     6     7  1
   12     6    18  1
   13     7     9  1
   14     7    17  1
   15     8    11  1
   16     8    17  1
   17     9    19  1
   18    13    20  1
   19    14    20  1
   20    16    20  1
   21    19    20  1
   22     1    21  1
   23     2    22  1
   24     5    23  1
   25     5    24  1
   26     6    25  1
   27     7    26  1
   28     8    27  1
   29     9    28  1
   30     9    29  1
   31    12    30  1
   32    12    31  1
   33    18    32  1

@<TRIPOS>MOLECULE
MOL
   32   33    0    0    0
SMALL
USER_CHARGES


@<TRIPOS>ATOM
   1   C1       15.3231   -2.5021   25.3964  C.2 1 <0> -0.1356
   2   C2       15.5202   -1.2937   25.9195  C.2 1 <0> -0.0410
   3   C3       14.2148   -3.3014   25.9809  C.2 1 <0>  0.4856
   4   C4       13.6976   -1.5800   27.4853  C.2 1 <0>  0.8408
   5   C5       16.0899    0.5194   28.5438  C.3 1 <0>  0.0000
   6   C6       16.7953    1.8373   28.3217  C.3 1 <0>  0.2800
   7   C7       16.7283    2.0138   26.8111  C.3 1 <0>  0.2800
   8   C8       15.0349    0.5226   27.4497  C.3 1 <0>  0.5801
   9   C9       17.9106    1.3823   26.0876  C.3 1 <0>  0.2800
  10   N1       13.4760   -2.8397   26.9555  N.2 1 <0> -0.6611
  11   N2       14.7459   -0.7905   26.9520 N.am 1 <0> -0.4690
  12   N3       13.9778   -4.5558   25.4685 N.pl3 1 <0> -0.8501
  13   O1       18.7676   -2.3524   26.1510  O.3 1 <0> -1.0332
  14   O2       20.3972   -0.3812   26.2318  O.3 1 <0> -1.0332
  15   O3       12.9916   -1.1611   28.4044  O.2 1 <0> -0.5698
  16   O4       18.9314   -0.7527   24.1606  O.2 1 <0> -1.0332
  17   O5       15.5319    1.3375   26.3787  O.3 1 <0> -0.5601
  18   O6       16.0715    2.8840   28.9651  O.3 1 <0> -0.6802
  19   O7       17.9091   -0.0135   26.3390  O.3 1 <0> -0.5513
  20   P1       19.0969   -0.9440   25.6653  P.3 1 <0>  1.3711
  21   H1       15.9230   -2.9022   24.5899    H 1 <0>  0.1500
  22   H2       16.3069   -0.6442   25.5519    H 1 <0>  0.1500
  23   H3       16.7673   -0.3414   28.5104    H 1 <0>  0.0000
  24   H4       15.6126    0.5151   29.5330    H 1 <0>  0.0000
  25   H5       17.8066    1.8161   28.7027    H 1 <0>  0.0000
  26   H6       16.6523    3.0585   26.5297    H 1 <0>  0.0000
  27   H7       14.0828    0.9476   27.8133    H 1 <0>  0.0000
  28   H8       18.8490    1.8078   26.4511    H 1 <0>  0.0000
  29   H9       17.8303    1.5497   25.0110    H 1 <0>  0.0000
  30  H10       14.5571   -4.8745   24.7298    H 1 <0>  0.3999
  31  H11       13.2380   -5.0871   25.8601    H 1 <0>  0.3999
  32  H12       16.5965    3.6877   28.9583    H 1 <0>  0.3999
@<TRIPOS>BOND
    1     1     2  1
    2     1     3  1
    3     2    11  1
    4     3    10  1
    5     3    12  1
    6     4    10  1
    7     4    11  1
    8     4    15  1
    9     5     6  1
   10     5     8  1
   11     6     7  1
   12     6    18  1
   13     7     9  1
   14     7    17  1
   15     8    11  1
   16     8    17  1
   17     9    19  1
   18    13    20  1
   19    14    20  1
   20    16    20  1
   21    19    20  1
   22     1    21  1
   23     2    22  1
   24     5    23  1
   25     5    24  1
   26     6    25  1
   27     7    26  1
   28     8    27  1
   29     9    28  1
   30     9    29  1
   31    12    30  1
   32    12    31  1
   33    18    32  1

@<TRIPOS>MOLECULE
MOL
   32   33    0    0    0
SMALL
USER_CHARGES


@<TRIPOS>ATOM
   1   C1       15.3507   -2.5324   25.4678  C.2 1 <0> -0.1356
   2   C2       15.5414   -1.3153   25.9731  C.2 1 <0> -0.0410
   3   C3       14.2533   -3.3328   26.0711  C.2 1 <0>  0.4856
   4   C4       13.7326   -1.5954   27.5559  C.2 1 <0>  0.8408
   5   C5       16.1149    0.5378   28.5685  C.3 1 <0>  0.0000
   6   C6       16.8076    1.8584   28.3234  C.3 1 <0>  0.2800
   7   C7       16.7283    2.0138   26.8111  C.3 1 <0>  0.2800
   8   C8       15.0520    0.5175   27.4822  C.3 1 <0>  0.5801
   9   C9       17.9106    1.3823   26.0876  C.3 1 <0>  0.2800
  10   N1       13.5177   -2.8639   27.0448  N.2 1 <0> -0.6611
  11   N2       14.7705   -0.8046   27.0043 N.am 1 <0> -0.4690
  12   N3       14.0231   -4.5959   25.5775 N.pl3 1 <0> -0.8501
  13   O1       18.7676   -2.3524   26.1510  O.3 1 <0> -1.0332
  14   O2       20.3972   -0.3812   26.2318  O.3 1 <0> -1.0332
  15   O3       13.0297   -1.1699   28.4744  O.2 1 <0> -0.5698
  16   O4       18.9314   -0.7527   24.1606  O.2 1 <0> -1.0332
  17   O5       15.5345    1.3219   26.3966  O.3 1 <0> -0.5601
  18   O6       16.0798    2.9077   28.9579  O.3 1 <0> -0.6802
  19   O7       17.9091   -0.0135   26.3390  O.3 1 <0> -0.5513
  20   P1       19.0969   -0.9440   25.6653  P.3 1 <0>  1.3711
  21   H1       15.9481   -2.9383   24.6625    H 1 <0>  0.1500
  22   H2       16.3201   -0.6644   25.5911    H 1 <0>  0.1500
  23   H3       16.7991   -0.3177   28.5418    H 1 <0>  0.0000
  24   H4       15.6447    0.5431   29.5611    H 1 <0>  0.0000
  25   H5       17.8218    1.8507   28.6973    H 1 <0>  0.0000
  26   H6       16.6416    3.0539   26.5161    H 1 <0>  0.0000
  27   H7       14.0991    0.9395   27.8469    H 1 <0>  0.0000
  28   H8       18.8490    1.8078   26.4511    H 1 <0>  0.0000
  29   H9       17.8303    1.5497   25.0110    H 1 <0>  0.0000
  30  H10       14.5997   -4.9197   24.8390    H 1 <0>  0.3999
  31  H11       13.2906   -5.1279   25.9816    H 1 <0>  0.3999
  32  H12       16.5980    3.7155   28.9364    H 1 <0>  0.3999
@<TRIPOS>BOND
    1     1     2  1
    2     1     3  1
    3     2    11  1
    4     3    10  1
    5     3    12  1
    6     4    10  1
    7     4    11  1
    8     4    15  1
    9     5     6  1
   10     5     8  1
   11     6     7  1
   12     6    18  1
   13     7     9  1
   14     7    17  1
   15     8    11  1
   16     8    17  1
   17     9    19  1
   18    13    20  1
   19    14    20  1
   20    16    20  1
   21    19    20  1
   22     1    21  1
   23     2    22  1
   24     5    23  1
   25     5    24  1
   26     6    25  1
   27     7    26  1
   28     8    27  1
   29     9    28  1
   30     9    29  1
   31    12    30  1
   32    12    31  1
   33    18    32  1

@<TRIPOS>MOLECULE
MOL
   32   33    0    0    0
SMALL
USER_CHARGES


@<TRIPOS>ATOM
   1   C1       15.3790   -2.5614   25.5395  C.2 1 <0> -0.1356
   2   C2       15.5633   -1.3361   26.0269  C.2 1 <0> -0.0410
   3   C3       14.2928   -3.3625   26.1615  C.2 1 <0>  0.4856
   4   C4       13.7682   -1.6095   27.6265  C.2 1 <0>  0.8408
   5   C5       16.1398    0.5568   28.5927  C.3 1 <0>  0.0000
   6   C6       16.8197    1.8796   28.3248  C.3 1 <0>  0.2800
   7   C7       16.7283    2.0138   26.8111  C.3 1 <0>  0.2800
   8   C8       15.0694    0.5130   27.5145  C.3 1 <0>  0.5801
   9   C9       17.9106    1.3823   26.0876  C.3 1 <0>  0.2800
  10   N1       13.5603   -2.8866   27.1341  N.2 1 <0> -0.6611
  11   N2       14.7955   -0.8177   27.0567 N.am 1 <0> -0.4690
  12   N3       14.0695   -4.6341   25.6867 N.pl3 1 <0> -0.8501
  13   O1       18.7676   -2.3524   26.1510  O.3 1 <0> -1.0332
  14   O2       20.3972   -0.3812   26.2318  O.3 1 <0> -1.0332
  15   O3       13.0684   -1.1774   28.5442  O.2 1 <0> -0.5698
  16   O4       18.9314   -0.7527   24.1606  O.2 1 <0> -1.0332
  17   O5       15.5374    1.3065   26.4147  O.3 1 <0> -0.5601
  18   O6       16.0878    2.9314   28.9503  O.3 1 <0> -0.6802
  19   O7       17.9091   -0.0135   26.3390  O.3 1 <0> -0.5513
  20   P1       19.0969   -0.9440   25.6653  P.3 1 <0>  1.3711
  21   H1       15.9740   -2.9733   24.7354    H 1 <0>  0.1500
  22   H2       16.3337   -0.6840   25.6304    H 1 <0>  0.1500
  23   H3       16.8310   -0.2933   28.5726    H 1 <0>  0.0000
  24   H4       15.6767    0.5717   29.5886    H 1 <0>  0.0000
  25   H5       17.8366    1.8854   28.6913    H 1 <0>  0.0000
  26   H6       16.6308    3.0490   26.5027    H 1 <0>  0.0000
  27   H7       14.1156    0.9320   27.8805    H 1 <0>  0.0000
  28   H8       18.8490    1.8078   26.4511    H 1 <0>  0.0000
  29   H9       17.8303    1.5497   25.0110    H 1 <0>  0.0000
  30  H10       14.6435   -4.9632   24.9484    H 1 <0>  0.3999
  31  H11       13.3444   -5.1666   26.1033    H 1 <0>  0.3999
  32  H12       16.5991    3.7431   28.9141    H 1 <0>  0.3999
@<TRIPOS>BOND
    1     1     2  1
    2     1     3  1
    3     2    11  1
    4     3    10  1
    5     3    12  1
    6     4    10  1
    7     4    11  1
    8     4    15  1
    9     5     6  1
   10     5     8  1
   11     6     7  1
   12     6    18  1
   13     7     9  1
   14     7    17  1
   15     8    11  1
   16     8    17  1
   17     9    19  1
   18    13    20  1
   19    14    20  1
   20    16    20  1
   21    19    20  1
   22     1    21  1
   23     2    22  1
   24     5    23  1
   25     5    24  1
   26     6    25  1
   27     7    26  1
   28     8    27  1
   29     9    28  1
   30     9    29  1
   31    12    30  1
   32    12    31  1
   33    18    32  1

@<TRIPOS>MOLECULE
MOL
   32   33    0    0    0
SMALL
USER_CHARGES


@<TRIPOS>ATOM
   1   C1       15.4081   -2.5892   25.6113  C.2 1 <0> -0.1356
   2   C2       15.5856   -1.3559   26.0807  C.2 1 <0> -0.0410
   3   C3       14.3331   -3.3907   26.2521  C.2 1 <0>  0.4856
   4   C4       13.8044   -1.6224   27.6969  C.2 1 <0>  0.8408
   5   C5       16.1648    0.5763   28.6165  C.3 1 <0>  0.0000
   6   C6       16.8317    1.9010   28.3257  C.3 1 <0>  0.2800
   7   C7       16.7283    2.0138   26.8111  C.3 1 <0>  0.2800
   8   C8       15.0870    0.5090   27.5468  C.3 1 <0>  0.5801
   9   C9       17.9106    1.3823   26.0876  C.3 1 <0>  0.2800
  10   N1       13.6036   -2.9077   27.2234  N.2 1 <0> -0.6611
  11   N2       14.8210   -0.8300   27.1090 N.am 1 <0> -0.4690
  12   N3       14.1170   -4.6704   25.7961 N.pl3 1 <0> -0.8501
  13   O1       18.7676   -2.3524   26.1510  O.3 1 <0> -1.0332
  14   O2       20.3972   -0.3812   26.2318  O.3 1 <0> -1.0332
  15   O3       13.1077   -1.1836   28.6138  O.2 1 <0> -0.5698
  16   O4       18.9314   -0.7527   24.1606  O.2 1 <0> -1.0332
  17   O5       15.5405    1.2914   26.4330  O.3 1 <0> -0.5601
  18   O6       16.0955    2.9550   28.9423  O.3 1 <0> -0.6802
  19   O7       17.9091   -0.0135   26.3390  O.3 1 <0> -0.5513
  20   P1       19.0969   -0.9440   25.6653  P.3 1 <0>  1.3711
  21   H1       16.0007   -3.0071   24.8085    H 1 <0>  0.1500
  22   H2       16.3477   -0.7030   25.6699    H 1 <0>  0.1500
  23   H3       16.8629   -0.2683   28.6028    H 1 <0>  0.0000
  24   H4       15.7088    0.6009   29.6154    H 1 <0>  0.0000
  25   H5       17.8511    1.9200   28.6847    H 1 <0>  0.0000
  26   H6       16.6200    3.0439   26.4895    H 1 <0>  0.0000
  27   H7       14.1325    0.9252   27.9140    H 1 <0>  0.0000
  28   H8       18.8490    1.8078   26.4511    H 1 <0>  0.0000
  29   H9       17.8303    1.5497   25.0110    H 1 <0>  0.0000
  30  H10       14.6885   -5.0048   25.0582    H 1 <0>  0.3999
  31  H11       13.3994   -5.2031   26.2251    H 1 <0>  0.3999
  32  H12       16.5998    3.7704   28.8914    H 1 <0>  0.3999
@<TRIPOS>BOND
    1     1     2  1
    2     1     3  1
    3     2    11  1
    4     3    10  1
    5     3    12  1
    6     4    10  1
    7     4    11  1
    8     4    15  1
    9     5     6  1
   10     5     8  1
   11     6     7  1
   12     6    18  1
   13     7     9  1
   14     7    17  1
   15     8    11  1
   16     8    17  1
   17     9    19  1
   18    13    20  1
   19    14    20  1
   20    16    20  1
   21    19    20  1
   22     1    21  1
   23     2    22  1
   24     5    23  1
   25     5    24  1
   26     6    25  1
   27     7    26  1
   28     8    27  1
   29     9    28  1
   30     9    29  1
   31    12    30  1
   32    12    31  1
   33    18    32  1

@<TRIPOS>MOLECULE
MOL
   32   33    0    0    0
SMALL
USER_CHARGES


@<TRIPOS>ATOM
   1   C1       15.4380   -2.6158   25.6833  C.2 1 <0> -0.1356
   2   C2       15.6086   -1.3748   26.1347  C.2 1 <0> -0.0410
   3   C3       14.3743   -3.4174   26.3426  C.2 1 <0>  0.4856
   4   C4       13.8413   -1.6340   27.7673  C.2 1 <0>  0.8408
   5   C5       16.1898    0.5964   28.6398  C.3 1 <0>  0.0000
   6   C6       16.8435    1.9224   28.3263  C.3 1 <0>  0.2800
   7   C7       16.7283    2.0138   26.8111  C.3 1 <0>  0.2800
   8   C8       15.1050    0.5057   27.5790  C.3 1 <0>  0.5801
   9   C9       17.9106    1.3823   26.0876  C.3 1 <0>  0.2800
  10   N1       13.6478   -2.9272   27.3126  N.2 1 <0> -0.6611
  11   N2       14.8469   -0.8413   27.1613 N.am 1 <0> -0.4690
  12   N3       14.1656   -4.7049   25.9056 N.pl3 1 <0> -0.8501
  13   O1       18.7676   -2.3524   26.1510  O.3 1 <0> -1.0332
  14   O2       20.3972   -0.3812   26.2318  O.3 1 <0> -1.0332
  15   O3       13.1475   -1.1886   28.6832  O.2 1 <0> -0.5698
  16   O4       18.9314   -0.7527   24.1606  O.2 1 <0> -1.0332
  17   O5       15.5439    1.2766   26.4515  O.3 1 <0> -0.5601
  18   O6       16.1030    2.9786   28.9339  O.3 1 <0> -0.6802
  19   O7       17.9091   -0.0135   26.3390  O.3 1 <0> -0.5513
  20   P1       19.0969   -0.9440   25.6653  P.3 1 <0>  1.3711
  21   H1       16.0283   -3.0396   24.8820    H 1 <0>  0.1500
  22   H2       16.3622   -0.7213   25.7095    H 1 <0>  0.1500
  23   H3       16.8948   -0.2425   28.6325    H 1 <0>  0.0000
  24   H4       15.7408    0.6308   29.6416    H 1 <0>  0.0000
  25   H5       17.8653    1.9547   28.6776    H 1 <0>  0.0000
  26   H6       16.6091    3.0385   26.4764    H 1 <0>  0.0000
  27   H7       14.1496    0.9189   27.9475    H 1 <0>  0.0000
  28   H8       18.8490    1.8078   26.4511    H 1 <0>  0.0000
  29   H9       17.8303    1.5497   25.0110    H 1 <0>  0.0000
  30  H10       14.7345   -5.0445   25.1681    H 1 <0>  0.3999
  31  H11       13.4556   -5.2376   26.3470    H 1 <0>  0.3999
  32  H12       16.6001    3.7973   28.8683    H 1 <0>  0.3999
@<TRIPOS>BOND
    1     1     2  1
    2     1     3  1
    3     2    11  1
    4     3    10  1
    5     3    12  1
    6     4    10  1
    7     4    11  1
    8     4    15  1
    9     5     6  1
   10     5     8  1
   11     6     7  1
   12     6    18  1
   13     7     9  1
   14     7    17  1
   15     8    11  1
   16     8    17  1
   17     9    19  1
   18    13    20  1
   19    14    20  1
   20    16    20  1
   21    19    20  1
   22     1    21  1
   23     2    22  1
   24     5    23  1
   25     5    24  1
   26     6    25  1
   27     7    26  1
   28     8    27  1
   29     9    28  1
   30     9    29  1
   31    12    30  1
   32    12    31  1
   33    18    32  1

@<TRIPOS>MOLECULE
MOL
   32   33    0    0    0
SMALL
USER_CHARGES


@<TRIPOS>ATOM
   1   C1       15.4686   -2.6411   25.7554  C.2 1 <0> -0.1356
   2   C2       15.6320   -1.3928   26.1887  C.2 1 <0> -0.0410
   3   C3       14.4163   -3.4425   26.4333  C.2 1 <0>  0.4856
   4   C4       13.8788   -1.6443   27.8375  C.2 1 <0>  0.8408
   5   C5       16.2148    0.6169   28.6627  C.3 1 <0>  0.0000
   6   C6       16.8552    1.9439   28.3265  C.3 1 <0>  0.2800
   7   C7       16.7283    2.0138   26.8111  C.3 1 <0>  0.2800
   8   C8       15.1232    0.5029   27.6112  C.3 1 <0>  0.5801
   9   C9       17.9106    1.3823   26.0876  C.3 1 <0>  0.2800
  10   N1       13.6928   -2.9451   27.4018  N.2 1 <0> -0.6611
  11   N2       14.8734   -0.8517   27.2136 N.am 1 <0> -0.4690
  12   N3       14.2153   -4.7374   26.0152 N.pl3 1 <0> -0.8501
  13   O1       18.7676   -2.3524   26.1510  O.3 1 <0> -1.0332
  14   O2       20.3972   -0.3812   26.2318  O.3 1 <0> -1.0332
  15   O3       13.1879   -1.1923   28.7524  O.2 1 <0> -0.5698
  16   O4       18.9314   -0.7527   24.1606  O.2 1 <0> -1.0332
  17   O5       15.5475    1.2620   26.4702  O.3 1 <0> -0.5601
  18   O6       16.1102    3.0022   28.9252  O.3 1 <0> -0.6802
  19   O7       17.9091   -0.0135   26.3390  O.3 1 <0> -0.5513
  20   P1       19.0969   -0.9440   25.6653  P.3 1 <0>  1.3711
  21   H1       16.0566   -3.0709   24.9556    H 1 <0>  0.1500
  22   H2       16.3771   -0.7389   25.7493    H 1 <0>  0.1500
  23   H3       16.9266   -0.2162   28.6615    H 1 <0>  0.0000
  24   H4       15.7727    0.6612   29.6672    H 1 <0>  0.0000
  25   H5       17.8791    1.9895   28.6699    H 1 <0>  0.0000
  26   H6       16.5981    3.0329   26.4635    H 1 <0>  0.0000
  27   H7       14.1671    0.9132   27.9810    H 1 <0>  0.0000
  28   H8       18.8490    1.8078   26.4511    H 1 <0>  0.0000
  29   H9       17.8303    1.5497   25.0110    H 1 <0>  0.0000
  30  H10       14.7817   -5.0823   25.2783    H 1 <0>  0.3999
  31  H11       13.5129   -5.2700   26.4689    H 1 <0>  0.3999
  32  H12       16.6000    3.8240   28.8449    H 1 <0>  0.3999
@<TRIPOS>BOND
    1     1     2  1
    2     1     3  1
    3     2    11  1
    4     3    10  1
    5     3    12  1
    6     4    10  1
    7     4    11  1
    8     4    15  1
    9     5     6  1
   10     5     8  1
   11     6     7  1
   12     6    18  1
   13     7     9  1
   14     7    17  1
   15     8    11  1
   16     8    17  1
   17     9    19  1
   18    13    20  1
   19    14    20  1
   20    16    20  1
   21    19    20  1
   22     1    21  1
   23     2    22  1
   24     5    23  1
   25     5    24  1
   26     6    25  1
   27     7    26  1
   28     8    27  1
   29     9    28  1
   30     9    29  1
   31    12    30  1
   32    12    31  1
   33    18    32  1

@<TRIPOS>MOLECULE
MOL
   32   33    0    0    0
SMALL
USER_CHARGES


@<TRIPOS>ATOM
   1   C1       15.4999   -2.6652   25.8277  C.2 1 <0> -0.1356
   2   C2       15.6560   -1.4098   26.2429  C.2 1 <0> -0.0410
   3   C3       14.4593   -3.4659   26.5239  C.2 1 <0>  0.4856
   4   C4       13.9168   -1.6534   27.9076  C.2 1 <0>  0.8408
   5   C5       16.2398    0.6380   28.6851  C.3 1 <0>  0.0000
   6   C6       16.8666    1.9655   28.3264  C.3 1 <0>  0.2800
   7   C7       16.7283    2.0138   26.8111  C.3 1 <0>  0.2800
   8   C8       15.1416    0.5008   27.6432  C.3 1 <0>  0.5801
   9   C9       17.9106    1.3823   26.0876  C.3 1 <0>  0.2800
  10   N1       13.7386   -2.9615   27.4909  N.2 1 <0> -0.6611
  11   N2       14.9003   -0.8611   27.2658 N.am 1 <0> -0.4690
  12   N3       14.2660   -4.7681   26.1249 N.pl3 1 <0> -0.8501
  13   O1       18.7676   -2.3524   26.1510  O.3 1 <0> -1.0332
  14   O2       20.3972   -0.3812   26.2318  O.3 1 <0> -1.0332
  15   O3       13.2288   -1.1947   28.8213  O.2 1 <0> -0.5698
  16   O4       18.9314   -0.7527   24.1606  O.2 1 <0> -1.0332
  17   O5       15.5514    1.2478   26.4890  O.3 1 <0> -0.5601
  18   O6       16.1172    3.0257   28.9161  O.3 1 <0> -0.6802
  19   O7       17.9091   -0.0135   26.3390  O.3 1 <0> -0.5513
  20   P1       19.0969   -0.9440   25.6653  P.3 1 <0>  1.3711
  21   H1       16.0857   -3.1010   25.0294    H 1 <0>  0.1500
  22   H2       16.3925   -0.7558   25.7892    H 1 <0>  0.1500
  23   H3       16.9585   -0.1891   28.6900    H 1 <0>  0.0000
  24   H4       15.8045    0.6923   29.6921    H 1 <0>  0.0000
  25   H5       17.8926    2.0242   28.6616    H 1 <0>  0.0000
  26   H6       16.5871    3.0270   26.4507    H 1 <0>  0.0000
  27   H7       14.1848    0.9081   28.0144    H 1 <0>  0.0000
  28   H8       18.8490    1.8078   26.4511    H 1 <0>  0.0000
  29   H9       17.8303    1.5497   25.0110    H 1 <0>  0.0000
  30  H10       14.8300   -5.1183   25.3885    H 1 <0>  0.3999
  31  H11       13.5714   -5.3002   26.5909    H 1 <0>  0.3999
  32  H12       16.5995    3.8503   28.8212    H 1 <0>  0.3999
@<TRIPOS>BOND
    1     1     2  1
    2     1     3  1
    3     2    11  1
    4     3    10  1
    5     3    12  1
    6     4    10  1
    7     4    11  1
    8     4    15  1
    9     5     6  1
   10     5     8  1
   11     6     7  1
   12     6    18  1
   13     7     9  1
   14     7    17  1
   15     8    11  1
   16     8    17  1
   17     9    19  1
   18    13    20  1
   19    14    20  1
   20    16    20  1
   21    19    20  1
   22     1    21  1
   23     2    22  1
   24     5    23  1
   25     5    24  1
   26     6    25  1
   27     7    26  1
   28     8    27  1
   29     9    28  1
   30     9    29  1
   31    12    30  1
   32    12    31  1
   33    18    32  1

@<TRIPOS>MOLECULE
MOL
   32   33    0    0    0
SMALL
USER_CHARGES


@<TRIPOS>ATOM
   1   C1       15.5319   -2.6881   25.9000  C.2 1 <0> -0.1356
   2   C2       15.6806   -1.4259   26.2970  C.2 1 <0> -0.0410
   3   C3       14.5030   -3.4879   26.6146  C.2 1 <0>  0.4856
   4   C4       13.9554   -1.6612   27.9776  C.2 1 <0>  0.8408
   5   C5       16.2647    0.6596   28.7070  C.3 1 <0>  0.0000
   6   C6       16.8779    1.9873   28.3259  C.3 1 <0>  0.2800
   7   C7       16.7283    2.0138   26.8111  C.3 1 <0>  0.2800
   8   C8       15.1603    0.4992   27.6751  C.3 1 <0>  0.5801
   9   C9       17.9106    1.3823   26.0876  C.3 1 <0>  0.2800
  10   N1       13.7852   -2.9763   27.5799  N.2 1 <0> -0.6611
  11   N2       14.9276   -0.8697   27.3179 N.am 1 <0> -0.4690
  12   N3       14.3178   -4.7969   26.2346 N.pl3 1 <0> -0.8501
  13   O1       18.7676   -2.3524   26.1510  O.3 1 <0> -1.0332
  14   O2       20.3972   -0.3812   26.2318  O.3 1 <0> -1.0332
  15   O3       13.2702   -1.1958   28.8899  O.2 1 <0> -0.5698
  16   O4       18.9314   -0.7527   24.1606  O.2 1 <0> -1.0332
  17   O5       15.5556    1.2338   26.5079  O.3 1 <0> -0.5601
  18   O6       16.1239    3.0491   28.9066  O.3 1 <0> -0.6802
  19   O7       17.9091   -0.0135   26.3390  O.3 1 <0> -0.5513
  20   P1       19.0969   -0.9440   25.6653  P.3 1 <0>  1.3711
  21   H1       16.1156   -3.1299   25.1035    H 1 <0>  0.1500
  22   H2       16.4082   -0.7721   25.8292    H 1 <0>  0.1500
  23   H3       16.9904   -0.1614   28.7179    H 1 <0>  0.0000
  24   H4       15.8363    0.7240   29.7163    H 1 <0>  0.0000
  25   H5       17.9057    2.0589   28.6528    H 1 <0>  0.0000
  26   H6       16.5761    3.0208   26.4380    H 1 <0>  0.0000
  27   H7       14.2028    0.9036   28.0477    H 1 <0>  0.0000
  28   H8       18.8490    1.8078   26.4511    H 1 <0>  0.0000
  29   H9       17.8303    1.5497   25.0110    H 1 <0>  0.0000
  30  H10       14.8794   -5.1524   25.4990    H 1 <0>  0.3999
  31  H11       13.6310   -5.3283   26.7128    H 1 <0>  0.3999
  32  H12       16.5986    3.8763   28.7970    H 1 <0>  0.3999
@<TRIPOS>BOND
    1     1     2  1
    2     1     3  1
    3     2    11  1
    4     3    10  1
    5     3    12  1
    6     4    10  1
    7     4    11  1
    8     4    15  1
    9     5     6  1
   10     5     8  1
   11     6     7  1
   12     6    18  1
   13     7     9  1
   14     7    17  1
   15     8    11  1
   16     8    17  1
   17     9    19  1
   18    13    20  1
   19    14    20  1
   20    16    20  1
   21    19    20  1
   22     1    21  1
   23     2    22  1
   24     5    23  1
   25     5    24  1
   26     6    25  1
   27     7    26  1
   28     8    27  1
   29     9    28  1
   30     9    29  1
   31    12    30  1
   32    12    31  1
   33    18    32  1

@<TRIPOS>MOLECULE
MOL
   32   33    0    0    0
SMALL
USER_CHARGES


@<TRIPOS>ATOM
   1   C1       15.5646   -2.7098   25.9724  C.2 1 <0> -0.1356
   2   C2       15.7056   -1.4411   26.3512  C.2 1 <0> -0.0410
   3   C3       14.5476   -3.5082   26.7052  C.2 1 <0>  0.4856
   4   C4       13.9946   -1.6678   28.0473  C.2 1 <0>  0.8408
   5   C5       16.2896    0.6817   28.7285  C.3 1 <0>  0.0000
   6   C6       16.8890    2.0091   28.3249  C.3 1 <0>  0.2800
   7   C7       16.7283    2.0138   26.8111  C.3 1 <0>  0.2800
   8   C8       15.1792    0.4982   27.7069  C.3 1 <0>  0.5801
   9   C9       17.9106    1.3823   26.0876  C.3 1 <0>  0.2800
  10   N1       13.8325   -2.9895   27.6687  N.2 1 <0> -0.6611
  11   N2       14.9554   -0.8773   27.3700 N.am 1 <0> -0.4690
  12   N3       14.3706   -4.8237   26.3443 N.pl3 1 <0> -0.8501
  13   O1       18.7676   -2.3524   26.1510  O.3 1 <0> -1.0332
  14   O2       20.3972   -0.3812   26.2318  O.3 1 <0> -1.0332
  15   O3       13.3120   -1.1957   28.9583  O.2 1 <0> -0.5698
  16   O4       18.9314   -0.7527   24.1606  O.2 1 <0> -1.0332
  17   O5       15.5600    1.2201   26.5271  O.3 1 <0> -0.5601
  18   O6       16.1304    3.0724   28.8968  O.3 1 <0> -0.6802
  19   O7       17.9091   -0.0135   26.3390  O.3 1 <0> -0.5513
  20   P1       19.0969   -0.9440   25.6653  P.3 1 <0>  1.3711
  21   H1       16.1463   -3.1575   25.1777    H 1 <0>  0.1500
  22   H2       16.4244   -0.7878   25.8693    H 1 <0>  0.1500
  23   H3       17.0222   -0.1331   28.7451    H 1 <0>  0.0000
  24   H4       15.8679    0.7562   29.7399    H 1 <0>  0.0000
  25   H5       17.9185    2.0936   28.6433    H 1 <0>  0.0000
  26   H6       16.5650    3.0143   26.4256    H 1 <0>  0.0000
  27   H7       14.2211    0.8998   28.0810    H 1 <0>  0.0000
  28   H8       18.8490    1.8078   26.4511    H 1 <0>  0.0000
  29   H9       17.8303    1.5497   25.0110    H 1 <0>  0.0000
  30  H10       14.9298   -5.1845   25.6095    H 1 <0>  0.3999
  31  H11       13.6917   -5.3542   26.8346    H 1 <0>  0.3999
  32  H12       16.5974    3.9019   28.7726    H 1 <0>  0.3999
@<TRIPOS>BOND
    1     1     2  1
    2     1     3  1
    3     2    11  1
    4     3    10  1
    5     3    12  1
    6     4    10  1
    7     4    11  1
    8     4    15  1
    9     5     6  1
   10     5     8  1
   11     6     7  1
   12     6    18  1
   13     7     9  1
   14     7    17  1
   15     8    11  1
   16     8    17  1
   17     9    19  1
   18    13    20  1
   19    14    20  1
   20    16    20  1
   21    19    20  1
   22     1    21  1
   23     2    22  1
   24     5    23  1
   25     5    24  1
   26     6    25  1
   27     7    26  1
   28     8    27  1
   29     9    28  1
   30     9    29  1
   31    12    30  1
   32    12    31  1
   33    18    32  1

@<TRIPOS>MOLECULE
MOL
   32   33    0    0    0
SMALL
USER_CHARGES


@<TRIPOS>ATOM
   1   C1       15.5981   -2.7302   26.0448  C.2 1 <0> -0.1356
   2   C2       15.7312   -1.4554   26.4054  C.2 1 <0> -0.0410
   3   C3       14.5930   -3.5269   26.7957  C.2 1 <0>  0.4856
   4   C4       14.0344   -1.6731   28.1169  C.2 1 <0>  0.8408
   5   C5       16.3145    0.7043   28.7494  C.3 1 <0>  0.0000
   6   C6       16.8999    2.0309   28.3237  C.3 1 <0>  0.2800
   7   C7       16.7283    2.0138   26.8111  C.3 1 <0>  0.2800
   8   C8       15.1984    0.4978   27.7386  C.3 1 <0>  0.5801
   9   C9       17.9106    1.3823   26.0876  C.3 1 <0>  0.2800
  10   N1       13.8805   -3.0011   27.7573  N.2 1 <0> -0.6611
  11   N2       14.9836   -0.8839   27.4219 N.am 1 <0> -0.4690
  12   N3       14.4244   -4.8486   26.4540 N.pl3 1 <0> -0.8501
  13   O1       18.7676   -2.3524   26.1510  O.3 1 <0> -1.0332
  14   O2       20.3972   -0.3812   26.2318  O.3 1 <0> -1.0332
  15   O3       13.3544   -1.1943   29.0263  O.2 1 <0> -0.5698
  16   O4       18.9314   -0.7527   24.1606  O.2 1 <0> -1.0332
  17   O5       15.5646    1.2067   26.5464  O.3 1 <0> -0.5601
  18   O6       16.1366    3.0957   28.8866  O.3 1 <0> -0.6802
  19   O7       17.9091   -0.0135   26.3390  O.3 1 <0> -0.5513
  20   P1       19.0969   -0.9440   25.6653  P.3 1 <0>  1.3711
  21   H1       16.1777   -3.1838   25.2520    H 1 <0>  0.1500
  22   H2       16.4411   -0.8027   25.9095    H 1 <0>  0.1500
  23   H3       17.0539   -0.1042   28.7718    H 1 <0>  0.0000
  24   H4       15.8995    0.7891   29.7628    H 1 <0>  0.0000
  25   H5       17.9309    2.1283   28.6334    H 1 <0>  0.0000
  26   H6       16.5539    3.0076   26.4133    H 1 <0>  0.0000
  27   H7       14.2397    0.8965   28.1142    H 1 <0>  0.0000
  28   H8       18.8490    1.8078   26.4511    H 1 <0>  0.0000
  29   H9       17.8303    1.5497   25.0110    H 1 <0>  0.0000
  30  H10       14.9813   -5.2147   25.7200    H 1 <0>  0.3999
  31  H11       13.7535   -5.3780   26.9564    H 1 <0>  0.3999
  32  H12       16.5957    3.9273   28.7478    H 1 <0>  0.3999
@<TRIPOS>BOND
    1     1     2  1
    2     1     3  1
    3     2    11  1
    4     3    10  1
    5     3    12  1
    6     4    10  1
    7     4    11  1
    8     4    15  1
    9     5     6  1
   10     5     8  1
   11     6     7  1
   12     6    18  1
   13     7     9  1
   14     7    17  1
   15     8    11  1
   16     8    17  1
   17     9    19  1
   18    13    20  1
   19    14    20  1
   20    16    20  1
   21    19    20  1
   22     1    21  1
   23     2    22  1
   24     5    23  1
   25     5    24  1
   26     6    25  1
   27     7    26  1
   28     8    27  1
   29     9    28  1
   30     9    29  1
   31    12    30  1
   32    12    31  1
   33    18    32  1

@<TRIPOS>MOLECULE
MOL
   32   33    0    0    0
SMALL
USER_CHARGES


@<TRIPOS>ATOM
   1   C1       15.6322   -2.7493   26.1172  C.2 1 <0> -0.1356
   2   C2       15.7573   -1.4686   26.4596  C.2 1 <0> -0.0410
   3   C3       14.6393   -3.5440   26.8862  C.2 1 <0>  0.4856
   4   C4       14.0746   -1.6771   28.1862  C.2 1 <0>  0.8408
   5   C5       16.3394    0.7274   28.7699  C.3 1 <0>  0.0000
   6   C6       16.9106    2.0529   28.3220  C.3 1 <0>  0.2800
   7   C7       16.7283    2.0138   26.8111  C.3 1 <0>  0.2800
   8   C8       15.2178    0.4979   27.7701  C.3 1 <0>  0.5801
   9   C9       17.9106    1.3823   26.0876  C.3 1 <0>  0.2800
  10   N1       13.9293   -3.0111   27.8458  N.2 1 <0> -0.6611
  11   N2       15.0123   -0.8896   27.4737 N.am 1 <0> -0.4690
  12   N3       14.4792   -4.8716   26.5636 N.pl3 1 <0> -0.8501
  13   O1       18.7676   -2.3524   26.1510  O.3 1 <0> -1.0332
  14   O2       20.3972   -0.3812   26.2318  O.3 1 <0> -1.0332
  15   O3       13.3973   -1.1916   29.0940  O.2 1 <0> -0.5698
  16   O4       18.9314   -0.7527   24.1606  O.2 1 <0> -1.0332
  17   O5       15.5695    1.1936   26.5658  O.3 1 <0> -0.5601
  18   O6       16.1425    3.1188   28.8761  O.3 1 <0> -0.6802
  19   O7       17.9091   -0.0135   26.3390  O.3 1 <0> -0.5513
  20   P1       19.0969   -0.9440   25.6653  P.3 1 <0>  1.3711
  21   H1       16.2099   -3.2088   25.3264    H 1 <0>  0.1500
  22   H2       16.4581   -0.8169   25.9498    H 1 <0>  0.1500
  23   H3       17.0857   -0.0746   28.7978    H 1 <0>  0.0000
  24   H4       15.9310    0.8225   29.7851    H 1 <0>  0.0000
  25   H5       17.9430    2.1629   28.6228    H 1 <0>  0.0000
  26   H6       16.5428    3.0007   26.4012    H 1 <0>  0.0000
  27   H7       14.2585    0.8938   28.1473    H 1 <0>  0.0000
  28   H8       18.8490    1.8078   26.4511    H 1 <0>  0.0000
  29   H9       17.8303    1.5497   25.0110    H 1 <0>  0.0000
  30  H10       15.0339   -5.2430   25.8306    H 1 <0>  0.3999
  31  H11       13.8164   -5.3996   27.0779    H 1 <0>  0.3999
  32  H12       16.5937    3.9522   28.7226    H 1 <0>  0.3999
@<TRIPOS>BOND
    1     1     2  1
    2     1     3  1
    3     2    11  1
    4     3    10  1
    5     3    12  1
    6     4    10  1
    7     4    11  1
    8     4    15  1
    9     5     6  1
   10     5     8  1
   11     6     7  1
   12     6    18  1
   13     7     9  1
   14     7    17  1
   15     8    11  1
   16     8    17  1
   17     9    19  1
   18    13    20  1
   19    14    20  1
   20    16    20  1
   21    19    20  1
   22     1    21  1
   23     2    22  1
   24     5    23  1
   25     5    24  1
   26     6    25  1
   27     7    26  1
   28     8    27  1
   29     9    28  1
   30     9    29  1
   31    12    30  1
   32    12    31  1
   33    18    32  1

@<TRIPOS>MOLECULE
MOL
   32   33    0    0    0
SMALL
USER_CHARGES


@<TRIPOS>ATOM
   1   C1       15.6670   -2.7671   26.1897  C.2 1 <0> -0.1356
   2   C2       15.7838   -1.4810   26.5138  C.2 1 <0> -0.0410
   3   C3       14.6863   -3.5595   26.9765  C.2 1 <0>  0.4856
   4   C4       14.1155   -1.6798   28.2553  C.2 1 <0>  0.8408
   5   C5       16.3642    0.7509   28.7899  C.3 1 <0>  0.0000
   6   C6       16.9211    2.0749   28.3200  C.3 1 <0>  0.2800
   7   C7       16.7283    2.0138   26.8111  C.3 1 <0>  0.2800
   8   C8       15.2374    0.4987   27.8015  C.3 1 <0>  0.5801
   9   C9       17.9106    1.3823   26.0876  C.3 1 <0>  0.2800
  10   N1       13.9788   -3.0194   27.9340  N.2 1 <0> -0.6611
  11   N2       15.0413   -0.8944   27.5254 N.am 1 <0> -0.4690
  12   N3       14.5350   -4.8926   26.6731 N.pl3 1 <0> -0.8501
  13   O1       18.7676   -2.3524   26.1510  O.3 1 <0> -1.0332
  14   O2       20.3972   -0.3812   26.2318  O.3 1 <0> -1.0332
  15   O3       13.4406   -1.1877   29.1614  O.2 1 <0> -0.5698
  16   O4       18.9314   -0.7527   24.1606  O.2 1 <0> -1.0332
  17   O5       15.5747    1.1809   26.5853  O.3 1 <0> -0.5601
  18   O6       16.1481    3.1419   28.8652  O.3 1 <0> -0.6802
  19   O7       17.9091   -0.0135   26.3390  O.3 1 <0> -0.5513
  20   P1       19.0969   -0.9440   25.6653  P.3 1 <0>  1.3711
  21   H1       16.2428   -3.2326   25.4010    H 1 <0>  0.1500
  22   H2       16.4755   -0.8305   25.9901    H 1 <0>  0.1500
  23   H3       17.1173   -0.0444   28.8232    H 1 <0>  0.0000
  24   H4       15.9623    0.8564   29.8067    H 1 <0>  0.0000
  25   H5       17.9547    2.1975   28.6118    H 1 <0>  0.0000
  26   H6       16.5316    2.9934   26.3893    H 1 <0>  0.0000
  27   H7       14.2776    0.8917   28.1803    H 1 <0>  0.0000
  28   H8       18.8490    1.8078   26.4511    H 1 <0>  0.0000
  29   H9       17.8303    1.5497   25.0110    H 1 <0>  0.0000
  30  H10       15.0874   -5.2694   25.9411    H 1 <0>  0.3999
  31  H11       13.8803   -5.4190   27.1994    H 1 <0>  0.3999
  32  H12       16.5912    3.9768   28.6972    H 1 <0>  0.3999
@<TRIPOS>BOND
    1     1     2  1
    2     1     3  1
    3     2    11  1
    4     3    10  1
    5     3    12  1
    6     4    10  1
    7     4    11  1
    8     4    15  1
    9     5     6  1
   10     5     8  1
   11     6     7  1
   12     6    18  1
   13     7     9  1
   14     7    17  1
   15     8    11  1
   16     8    17  1
   17     9    19  1
   18    13    20  1
   19    14    20  1
   20    16    20  1
   21    19    20  1
   22     1    21  1
   23     2    22  1
   24     5    23  1
   25     5    24  1
   26     6    25  1
   27     7    26  1
   28     8    27  1
   29     9    28  1
   30     9    29  1
   31    12    30  1
   32    12    31  1
   33    18    32  1

@<TRIPOS>MOLECULE
MOL
   32   33    0    0    0
SMALL
USER_CHARGES


@<TRIPOS>ATOM
   1   C1       15.7025   -2.7837   26.2621  C.2 1 <0> -0.1356
   2   C2       15.8109   -1.4924   26.5680  C.2 1 <0> -0.0410
   3   C3       14.7341   -3.5734   27.0667  C.2 1 <0>  0.4856
   4   C4       14.1568   -1.6813   28.3241  C.2 1 <0>  0.8408
   5   C5       16.3890    0.7749   28.8094  C.3 1 <0>  0.0000
   6   C6       16.9314    2.0970   28.3176  C.3 1 <0>  0.2800
   7   C7       16.7283    2.0138   26.8111  C.3 1 <0>  0.2800
   8   C8       15.2572    0.5001   27.8328  C.3 1 <0>  0.5801
   9   C9       17.9106    1.3823   26.0876  C.3 1 <0>  0.2800
  10   N1       14.0290   -3.0262   28.0219  N.2 1 <0> -0.6611
  11   N2       15.0708   -0.8983   27.5769 N.am 1 <0> -0.4690
  12   N3       14.5917   -4.9117   26.7824 N.pl3 1 <0> -0.8501
  13   O1       18.7676   -2.3524   26.1510  O.3 1 <0> -1.0332
  14   O2       20.3972   -0.3812   26.2318  O.3 1 <0> -1.0332
  15   O3       13.4844   -1.1825   29.2283  O.2 1 <0> -0.5698
  16   O4       18.9314   -0.7527   24.1606  O.2 1 <0> -1.0332
  17   O5       15.5801    1.1684   26.6050  O.3 1 <0> -0.5601
  18   O6       16.1535    3.1649   28.8539  O.3 1 <0> -0.6802
  19   O7       17.9091   -0.0135   26.3390  O.3 1 <0> -0.5513
  20   P1       19.0969   -0.9440   25.6653  P.3 1 <0>  1.3711
  21   H1       16.2765   -3.2551   25.4756    H 1 <0>  0.1500
  22   H2       16.4934   -0.8434   26.0305    H 1 <0>  0.1500
  23   H3       17.1489   -0.0136   28.8480    H 1 <0>  0.0000
  24   H4       15.9935    0.8909   29.8275    H 1 <0>  0.0000
  25   H5       17.9660    2.2320   28.6001    H 1 <0>  0.0000
  26   H6       16.5205    2.9860   26.3775    H 1 <0>  0.0000
  27   H7       14.2969    0.8903   28.2132    H 1 <0>  0.0000
  28   H8       18.8490    1.8078   26.4511    H 1 <0>  0.0000
  29   H9       17.8303    1.5497   25.0110    H 1 <0>  0.0000
  30  H10       15.1420   -5.2938   26.0517    H 1 <0>  0.3999
  31  H11       13.9452   -5.4363   27.3205    H 1 <0>  0.3999
  32  H12       16.5884    4.0010   28.6714    H 1 <0>  0.3999
@<TRIPOS>BOND
    1     1     2  1
    2     1     3  1
    3     2    11  1
    4     3    10  1
    5     3    12  1
    6     4    10  1
    7     4    11  1
    8     4    15  1
    9     5     6  1
   10     5     8  1
   11     6     7  1
   12     6    18  1
   13     7     9  1
   14     7    17  1
   15     8    11  1
   16     8    17  1
   17     9    19  1
   18    13    20  1
   19    14    20  1
   20    16    20  1
   21    19    20  1
   22     1    21  1
   23     2    22  1
   24     5    23  1
   25     5    24  1
   26     6    25  1
   27     7    26  1
   28     8    27  1
   29     9    28  1
   30     9    29  1
   31    12    30  1
   32    12    31  1
   33    18    32  1

@<TRIPOS>MOLECULE
MOL
   32   33    0    0    0
SMALL
USER_CHARGES


@<TRIPOS>ATOM
   1   C1       15.7386   -2.7990   26.3345  C.2 1 <0> -0.1356
   2   C2       15.8384   -1.5028   26.6221  C.2 1 <0> -0.0410
   3   C3       14.7826   -3.5856   27.1568  C.2 1 <0>  0.4856
   4   C4       14.1986   -1.6814   28.3926  C.2 1 <0>  0.8408
   5   C5       16.4137    0.7994   28.8284  C.3 1 <0>  0.0000
   6   C6       16.9415    2.1191   28.3148  C.3 1 <0>  0.2800
   7   C7       16.7283    2.0138   26.8111  C.3 1 <0>  0.2800
   8   C8       15.2773    0.5020   27.8638  C.3 1 <0>  0.5801
   9   C9       17.9106    1.3823   26.0876  C.3 1 <0>  0.2800
  10   N1       14.0799   -3.0314   28.1096  N.2 1 <0> -0.6611
  11   N2       15.1007   -0.9012   27.6283 N.am 1 <0> -0.4690
  12   N3       14.6494   -4.9288   26.8916 N.pl3 1 <0> -0.8501
  13   O1       18.7676   -2.3524   26.1510  O.3 1 <0> -1.0332
  14   O2       20.3972   -0.3812   26.2318  O.3 1 <0> -1.0332
  15   O3       13.5286   -1.1760   29.2949  O.2 1 <0> -0.5698
  16   O4       18.9314   -0.7527   24.1606  O.2 1 <0> -1.0332
  17   O5       15.5857    1.1562   26.6249  O.3 1 <0> -0.5601
  18   O6       16.1586    3.1877   28.8423  O.3 1 <0> -0.6802
  19   O7       17.9091   -0.0135   26.3390  O.3 1 <0> -0.5513
  20   P1       19.0969   -0.9440   25.6653  P.3 1 <0>  1.3711
  21   H1       16.3108   -3.2763   25.5503    H 1 <0>  0.1500
  22   H2       16.5116   -0.8556   26.0709    H 1 <0>  0.1500
  23   H3       17.1804    0.0178   28.8721    H 1 <0>  0.0000
  24   H4       16.0246    0.9259   29.8477    H 1 <0>  0.0000
  25   H5       17.9769    2.2665   28.5879    H 1 <0>  0.0000
  26   H6       16.5093    2.9782   26.3659    H 1 <0>  0.0000
  27   H7       14.3165    0.8894   28.2459    H 1 <0>  0.0000
  28   H8       18.8490    1.8078   26.4511    H 1 <0>  0.0000
  29   H9       17.8303    1.5497   25.0110    H 1 <0>  0.0000
  30  H10       15.1976   -5.3163   26.1621    H 1 <0>  0.3999
  31  H11       14.0112   -5.4514   27.4415    H 1 <0>  0.3999
  32  H12       16.5852    4.0249   28.6454    H 1 <0>  0.3999
@<TRIPOS>BOND
    1     1     2  1
    2     1     3  1
    3     2    11  1
    4     3    10  1
    5     3    12  1
    6     4    10  1
    7     4    11  1
    8     4    15  1
    9     5     6  1
   10     5     8  1
   11     6     7  1
   12     6    18  1
   13     7     9  1
   14     7    17  1
   15     8    11  1
   16     8    17  1
   17     9    19  1
   18    13    20  1
   19    14    20  1
   20    16    20  1
   21    19    20  1
   22     1    21  1
   23     2    22  1
   24     5    23  1
   25     5    24  1
   26     6    25  1
   27     7    26  1
   28     8    27  1
   29     9    28  1
   30     9    29  1
   31    12    30  1
   32    12    31  1
   33    18    32  1

@<TRIPOS>MOLECULE
MOL
   32   33    0    0    0
SMALL
USER_CHARGES


@<TRIPOS>ATOM
   1   C1       15.7754   -2.8130   26.4069  C.2 1 <0> -0.1356
   2   C2       15.8665   -1.5122   26.6761  C.2 1 <0> -0.0410
   3   C3       14.8319   -3.5963   27.2466  C.2 1 <0>  0.4856
   4   C4       14.2409   -1.6804   28.4608  C.2 1 <0>  0.8408
   5   C5       16.4383    0.8244   28.8469  C.3 1 <0>  0.0000
   6   C6       16.9514    2.1412   28.3116  C.3 1 <0>  0.2800
   7   C7       16.7283    2.0138   26.8111  C.3 1 <0>  0.2800
   8   C8       15.2975    0.5045   27.8947  C.3 1 <0>  0.5801
   9   C9       17.9106    1.3823   26.0876  C.3 1 <0>  0.2800
  10   N1       14.1314   -3.0349   28.1969  N.2 1 <0> -0.6611
  11   N2       15.1310   -0.9031   27.6795 N.am 1 <0> -0.4690
  12   N3       14.7080   -4.9439   27.0006 N.pl3 1 <0> -0.8501
  13   O1       18.7676   -2.3524   26.1510  O.3 1 <0> -1.0332
  14   O2       20.3972   -0.3812   26.2318  O.3 1 <0> -1.0332
  15   O3       13.5732   -1.1682   29.3611  O.2 1 <0> -0.5698
  16   O4       18.9314   -0.7527   24.1606  O.2 1 <0> -1.0332
  17   O5       15.5916    1.1444   26.6448  O.3 1 <0> -0.5601
  18   O6       16.1634    3.2104   28.8303  O.3 1 <0> -0.6802
  19   O7       17.9091   -0.0135   26.3390  O.3 1 <0> -0.5513
  20   P1       19.0969   -0.9440   25.6653  P.3 1 <0>  1.3711
  21   H1       16.3459   -3.2962   25.6250    H 1 <0>  0.1500
  22   H2       16.5302   -0.8670   26.1113    H 1 <0>  0.1500
  23   H3       17.2118    0.0497   28.8955    H 1 <0>  0.0000
  24   H4       16.0555    0.9615   29.8672    H 1 <0>  0.0000
  25   H5       17.9875    2.3009   28.5752    H 1 <0>  0.0000
  26   H6       16.4980    2.9703   26.3545    H 1 <0>  0.0000
  27   H7       14.3363    0.8891   28.2785    H 1 <0>  0.0000
  28   H8       18.8490    1.8078   26.4511    H 1 <0>  0.0000
  29   H9       17.8303    1.5497   25.0110    H 1 <0>  0.0000
  30  H10       15.2542   -5.3368   26.2724    H 1 <0>  0.3999
  31  H11       14.0781   -5.4643   27.5621    H 1 <0>  0.3999
  32  H12       16.5816    4.0484   28.6190    H 1 <0>  0.3999
@<TRIPOS>BOND
    1     1     2  1
    2     1     3  1
    3     2    11  1
    4     3    10  1
    5     3    12  1
    6     4    10  1
    7     4    11  1
    8     4    15  1
    9     5     6  1
   10     5     8  1
   11     6     7  1
   12     6    18  1
   13     7     9  1
   14     7    17  1
   15     8    11  1
   16     8    17  1
   17     9    19  1
   18    13    20  1
   19    14    20  1
   20    16    20  1
   21    19    20  1
   22     1    21  1
   23     2    22  1
   24     5    23  1
   25     5    24  1
   26     6    25  1
   27     7    26  1
   28     8    27  1
   29     9    28  1
   30     9    29  1
   31    12    30  1
   32    12    31  1
   33    18    32  1

@<TRIPOS>MOLECULE
MOL
   32   33    0    0    0
SMALL
USER_CHARGES


@<TRIPOS>ATOM
   1   C1       15.8128   -2.8258   26.4791  C.2 1 <0> -0.1356
   2   C2       15.8950   -1.5207   26.7301  C.2 1 <0> -0.0410
   3   C3       14.8819   -3.6053   27.3362  C.2 1 <0>  0.4856
   4   C4       14.2837   -1.6780   28.5287  C.2 1 <0>  0.8408
   5   C5       16.4629    0.8498   28.8648  C.3 1 <0>  0.0000
   6   C6       16.9611    2.1634   28.3081  C.3 1 <0>  0.2800
   7   C7       16.7283    2.0138   26.8111  C.3 1 <0>  0.2800
   8   C8       15.3180    0.5076   27.9254  C.3 1 <0>  0.5801
   9   C9       17.9106    1.3823   26.0876  C.3 1 <0>  0.2800
  10   N1       14.1836   -3.0369   28.2840  N.2 1 <0> -0.6611
  11   N2       15.1616   -0.9041   27.7304 N.am 1 <0> -0.4690
  12   N3       14.7675   -4.9571   27.1094 N.pl3 1 <0> -0.8501
  13   O1       18.7676   -2.3524   26.1510  O.3 1 <0> -1.0332
  14   O2       20.3972   -0.3812   26.2318  O.3 1 <0> -1.0332
  15   O3       13.6182   -1.1592   29.4268  O.2 1 <0> -0.5698
  16   O4       18.9314   -0.7527   24.1606  O.2 1 <0> -1.0332
  17   O5       15.5977    1.1329   26.6649  O.3 1 <0> -0.5601
  18   O6       16.1680    3.2331   28.8180  O.3 1 <0> -0.6802
  19   O7       17.9091   -0.0135   26.3390  O.3 1 <0> -0.5513
  20   P1       19.0969   -0.9440   25.6653  P.3 1 <0>  1.3711
  21   H1       16.3817   -3.3147   25.6997    H 1 <0>  0.1500
  22   H2       16.5492   -0.8778   26.1518    H 1 <0>  0.1500
  23   H3       17.2431    0.0822   28.9183    H 1 <0>  0.0000
  24   H4       16.0862    0.9976   29.8860    H 1 <0>  0.0000
  25   H5       17.9977    2.3352   28.5619    H 1 <0>  0.0000
  26   H6       16.4868    2.9621   26.3433    H 1 <0>  0.0000
  27   H7       14.3564    0.8895   28.3110    H 1 <0>  0.0000
  28   H8       18.8490    1.8078   26.4511    H 1 <0>  0.0000
  29   H9       17.8303    1.5497   25.0110    H 1 <0>  0.0000
  30  H10       15.3117   -5.3553   26.3826    H 1 <0>  0.3999
  31  H11       14.1460   -5.4750   27.6824    H 1 <0>  0.3999
  32  H12       16.5776    4.0715   28.5924    H 1 <0>  0.3999
@<TRIPOS>BOND
    1     1     2  1
    2     1     3  1
    3     2    11  1
    4     3    10  1
    5     3    12  1
    6     4    10  1
    7     4    11  1
    8     4    15  1
    9     5     6  1
   10     5     8  1
   11     6     7  1
   12     6    18  1
   13     7     9  1
   14     7    17  1
   15     8    11  1
   16     8    17  1
   17     9    19  1
   18    13    20  1
   19    14    20  1
   20    16    20  1
   21    19    20  1
   22     1    21  1
   23     2    22  1
   24     5    23  1
   25     5    24  1
   26     6    25  1
   27     7    26  1
   28     8    27  1
   29     9    28  1
   30     9    29  1
   31    12    30  1
   32    12    31  1
   33    18    32  1

@<TRIPOS>MOLECULE
MOL
   32   33    0    0    0
SMALL
USER_CHARGES


@<TRIPOS>ATOM
   1   C1       15.8508   -2.8372   26.5512  C.2 1 <0> -0.1356
   2   C2       15.9239   -1.5282   26.7840  C.2 1 <0> -0.0410
   3   C3       14.9327   -3.6126   27.4256  C.2 1 <0>  0.4856
   4   C4       14.3270   -1.6743   28.5962  C.2 1 <0>  0.8408
   5   C5       16.4873    0.8756   28.8822  C.3 1 <0>  0.0000
   6   C6       16.9706    2.1857   28.3042  C.3 1 <0>  0.2800
   7   C7       16.7283    2.0138   26.8111  C.3 1 <0>  0.2800
   8   C8       15.3386    0.5113   27.9559  C.3 1 <0>  0.5801
   9   C9       17.9106    1.3823   26.0876  C.3 1 <0>  0.2800
  10   N1       14.2365   -3.0372   28.3706  N.2 1 <0> -0.6611
  11   N2       15.1927   -0.9042   27.7812 N.am 1 <0> -0.4690
  12   N3       14.8279   -4.9684   27.2179 N.pl3 1 <0> -0.8501
  13   O1       18.7676   -2.3524   26.1510  O.3 1 <0> -1.0332
  14   O2       20.3972   -0.3812   26.2318  O.3 1 <0> -1.0332
  15   O3       13.6637   -1.1489   29.4920  O.2 1 <0> -0.5698
  16   O4       18.9314   -0.7527   24.1606  O.2 1 <0> -1.0332
  17   O5       15.6041    1.1217   26.6850  O.3 1 <0> -0.5601
  18   O6       16.1723    3.2555   28.8054  O.3 1 <0> -0.6802
  19   O7       17.9091   -0.0135   26.3390  O.3 1 <0> -0.5513
  20   P1       19.0969   -0.9440   25.6653  P.3 1 <0>  1.3711
  21   H1       16.4182   -3.3320   25.7744    H 1 <0>  0.1500
  22   H2       16.5686   -0.8879   26.1923    H 1 <0>  0.1500
  23   H3       17.2743    0.1153   28.9404    H 1 <0>  0.0000
  24   H4       16.1168    1.0342   29.9040    H 1 <0>  0.0000
  25   H5       18.0075    2.3694   28.5481    H 1 <0>  0.0000
  26   H6       16.4755    2.9536   26.3323    H 1 <0>  0.0000
  27   H7       14.3767    0.8905   28.3433    H 1 <0>  0.0000
  28   H8       18.8490    1.8078   26.4511    H 1 <0>  0.0000
  29   H9       17.8303    1.5497   25.0110    H 1 <0>  0.0000
  30  H10       15.3701   -5.3719   26.4926    H 1 <0>  0.3999
  31  H11       14.2149   -5.4835   27.8024    H 1 <0>  0.3999
  32  H12       16.5733    4.0941   28.5655    H 1 <0>  0.3999
@<TRIPOS>BOND
    1     1     2  1
    2     1     3  1
    3     2    11  1
    4     3    10  1
    5     3    12  1
    6     4    10  1
    7     4    11  1
    8     4    15  1
    9     5     6  1
   10     5     8  1
   11     6     7  1
   12     6    18  1
   13     7     9  1
   14     7    17  1
   15     8    11  1
   16     8    17  1
   17     9    19  1
   18    13    20  1
   19    14    20  1
   20    16    20  1
   21    19    20  1
   22     1    21  1
   23     2    22  1
   24     5    23  1
   25     5    24  1
   26     6    25  1
   27     7    26  1
   28     8    27  1
   29     9    28  1
   30     9    29  1
   31    12    30  1
   32    12    31  1
   33    18    32  1

@<TRIPOS>MOLECULE
MOL
   32   33    0    0    0
SMALL
USER_CHARGES


@<TRIPOS>ATOM
   1   C1       15.8895   -2.8473   26.6232  C.2 1 <0> -0.1356
   2   C2       15.9533   -1.5348   26.8377  C.2 1 <0> -0.0410
   3   C3       14.9841   -3.6184   27.5146  C.2 1 <0>  0.4856
   4   C4       14.3707   -1.6694   28.6634  C.2 1 <0>  0.8408
   5   C5       16.5117    0.9019   28.8991  C.3 1 <0>  0.0000
   6   C6       16.9799    2.2079   28.2999  C.3 1 <0>  0.2800
   7   C7       16.7283    2.0138   26.8111  C.3 1 <0>  0.2800
   8   C8       15.3594    0.5156   27.9863  C.3 1 <0>  0.5801
   9   C9       17.9106    1.3823   26.0876  C.3 1 <0>  0.2800
  10   N1       14.2900   -3.0360   28.4569  N.2 1 <0> -0.6611
  11   N2       15.2241   -0.9033   27.8317 N.am 1 <0> -0.4690
  12   N3       14.8892   -4.9776   27.3260 N.pl3 1 <0> -0.8501
  13   O1       18.7676   -2.3524   26.1510  O.3 1 <0> -1.0332
  14   O2       20.3972   -0.3812   26.2318  O.3 1 <0> -1.0332
  15   O3       13.7095   -1.1374   29.5568  O.2 1 <0> -0.5698
  16   O4       18.9314   -0.7527   24.1606  O.2 1 <0> -1.0332
  17   O5       15.6107    1.1108   26.7053  O.3 1 <0> -0.5601
  18   O6       16.1763    3.2779   28.7924  O.3 1 <0> -0.6802
  19   O7       17.9091   -0.0135   26.3390  O.3 1 <0> -0.5513
  20   P1       19.0969   -0.9440   25.6653  P.3 1 <0>  1.3711
  21   H1       16.4553   -3.3480   25.8490    H 1 <0>  0.1500
  22   H2       16.5884   -0.8972   26.2327    H 1 <0>  0.1500
  23   H3       17.3054    0.1490   28.9618    H 1 <0>  0.0000
  24   H4       16.1472    1.0713   29.9214    H 1 <0>  0.0000
  25   H5       18.0169    2.4034   28.5338    H 1 <0>  0.0000
  26   H6       16.4643    2.9449   26.3215    H 1 <0>  0.0000
  27   H7       14.3972    0.8920   28.3755    H 1 <0>  0.0000
  28   H8       18.8490    1.8078   26.4511    H 1 <0>  0.0000
  29   H9       17.8303    1.5497   25.0110    H 1 <0>  0.0000
  30  H10       15.4295   -5.3864   26.6023    H 1 <0>  0.3999
  31  H11       14.2847   -5.4898   27.9219    H 1 <0>  0.3999
  32  H12       16.5685    4.1164   28.5383    H 1 <0>  0.3999
@<TRIPOS>BOND
    1     1     2  1
    2     1     3  1
    3     2    11  1
    4     3    10  1
    5     3    12  1
    6     4    10  1
    7     4    11  1
    8     4    15  1
    9     5     6  1
   10     5     8  1
   11     6     7  1
   12     6    18  1
   13     7     9  1
   14     7    17  1
   15     8    11  1
   16     8    17  1
   17     9    19  1
   18    13    20  1
   19    14    20  1
   20    16    20  1
   21    19    20  1
   22     1    21  1
   23     2    22  1
   24     5    23  1
   25     5    24  1
   26     6    25  1
   27     7    26  1
   28     8    27  1
   29     9    28  1
   30     9    29  1
   31    12    30  1
   32    12    31  1
   33    18    32  1

@<TRIPOS>MOLECULE
MOL
   32   33    0    0    0
SMALL
USER_CHARGES


@<TRIPOS>ATOM
   1   C1       15.9287   -2.8562   26.6951  C.2 1 <0> -0.1356
   2   C2       15.9831   -1.5404   26.8913  C.2 1 <0> -0.0410
   3   C3       15.0362   -3.6225   27.6034  C.2 1 <0>  0.4856
   4   C4       14.4149   -1.6632   28.7301  C.2 1 <0>  0.8408
   5   C5       16.5360    0.9286   28.9155  C.3 1 <0>  0.0000
   6   C6       16.9889    2.2302   28.2953  C.3 1 <0>  0.2800
   7   C7       16.7283    2.0138   26.8111  C.3 1 <0>  0.2800
   8   C8       15.3805    0.5205   28.0163  C.3 1 <0>  0.5801
   9   C9       17.9106    1.3823   26.0876  C.3 1 <0>  0.2800
  10   N1       14.3440   -3.0331   28.5427  N.2 1 <0> -0.6611
  11   N2       15.2558   -0.9015   27.8820 N.am 1 <0> -0.4690
  12   N3       14.9513   -4.9849   27.4339 N.pl3 1 <0> -0.8501
  13   O1       18.7676   -2.3524   26.1510  O.3 1 <0> -1.0332
  14   O2       20.3972   -0.3812   26.2318  O.3 1 <0> -1.0332
  15   O3       13.7557   -1.1246   29.6211  O.2 1 <0> -0.5698
  16   O4       18.9314   -0.7527   24.1606  O.2 1 <0> -1.0332
  17   O5       15.6175    1.1003   26.7257  O.3 1 <0> -0.5601
  18   O6       16.1800    3.3001   28.7791  O.3 1 <0> -0.6802
  19   O7       17.9091   -0.0135   26.3390  O.3 1 <0> -0.5513
  20   P1       19.0969   -0.9440   25.6653  P.3 1 <0>  1.3711
  21   H1       16.4932   -3.3626   25.9236    H 1 <0>  0.1500
  22   H2       16.6085   -0.9058   26.2732    H 1 <0>  0.1500
  23   H3       17.3364    0.1832   28.9825    H 1 <0>  0.0000
  24   H4       16.1775    1.1088   29.9380    H 1 <0>  0.0000
  25   H5       18.0260    2.4374   28.5189    H 1 <0>  0.0000
  26   H6       16.4530    2.9360   26.3109    H 1 <0>  0.0000
  27   H7       14.4179    0.8942   28.4075    H 1 <0>  0.0000
  28   H8       18.8490    1.8078   26.4511    H 1 <0>  0.0000
  29   H9       17.8303    1.5497   25.0110    H 1 <0>  0.0000
  30  H10       15.4898   -5.3990   26.7118    H 1 <0>  0.3999
  31  H11       14.3554   -5.4939   28.0410    H 1 <0>  0.3999
  32  H12       16.5634    4.1383   28.5108    H 1 <0>  0.3999
@<TRIPOS>BOND
    1     1     2  1
    2     1     3  1
    3     2    11  1
    4     3    10  1
    5     3    12  1
    6     4    10  1
    7     4    11  1
    8     4    15  1
    9     5     6  1
   10     5     8  1
   11     6     7  1
   12     6    18  1
   13     7     9  1
   14     7    17  1
   15     8    11  1
   16     8    17  1
   17     9    19  1
   18    13    20  1
   19    14    20  1
   20    16    20  1
   21    19    20  1
   22     1    21  1
   23     2    22  1
   24     5    23  1
   25     5    24  1
   26     6    25  1
   27     7    26  1
   28     8    27  1
   29     9    28  1
   30     9    29  1
   31    12    30  1
   32    12    31  1
   33    18    32  1

@<TRIPOS>MOLECULE
MOL
   32   33    0    0    0
SMALL
USER_CHARGES


@<TRIPOS>ATOM
   1   C1       15.9685   -2.8637   26.7667  C.2 1 <0> -0.1356
   2   C2       16.0134   -1.5450   26.9448  C.2 1 <0> -0.0410
   3   C3       15.0890   -3.6250   27.6918  C.2 1 <0>  0.4856
   4   C4       14.4594   -1.6558   28.7965  C.2 1 <0>  0.8408
   5   C5       16.5601    0.9557   28.9313  C.3 1 <0>  0.0000
   6   C6       16.9978    2.2524   28.2903  C.3 1 <0>  0.2800
   7   C7       16.7283    2.0138   26.8111  C.3 1 <0>  0.2800
   8   C8       15.4016    0.5259   28.0462  C.3 1 <0>  0.5801
   9   C9       17.9106    1.3823   26.0876  C.3 1 <0>  0.2800
  10   N1       14.3987   -3.0286   28.6281  N.2 1 <0> -0.6611
  11   N2       15.2879   -0.8987   27.9320 N.am 1 <0> -0.4690
  12   N3       15.0142   -4.9902   27.5414 N.pl3 1 <0> -0.8501
  13   O1       18.7676   -2.3524   26.1510  O.3 1 <0> -1.0332
  14   O2       20.3972   -0.3812   26.2318  O.3 1 <0> -1.0332
  15   O3       13.8022   -1.1105   29.6849  O.2 1 <0> -0.5698
  16   O4       18.9314   -0.7527   24.1606  O.2 1 <0> -1.0332
  17   O5       15.6246    1.0901   26.7461  O.3 1 <0> -0.5601
  18   O6       16.1834    3.3221   28.7655  O.3 1 <0> -0.6802
  19   O7       17.9091   -0.0135   26.3390  O.3 1 <0> -0.5513
  20   P1       19.0969   -0.9440   25.6653  P.3 1 <0>  1.3711
  21   H1       16.5316   -3.3759   25.9981    H 1 <0>  0.1500
  22   H2       16.6290   -0.9138   26.3136    H 1 <0>  0.1500
  23   H3       17.3672    0.2179   29.0026    H 1 <0>  0.0000
  24   H4       16.2075    1.1468   29.9538    H 1 <0>  0.0000
  25   H5       18.0346    2.4712   28.5035    H 1 <0>  0.0000
  26   H6       16.4417    2.9268   26.3005    H 1 <0>  0.0000
  27   H7       14.4388    0.8970   28.4392    H 1 <0>  0.0000
  28   H8       18.8490    1.8078   26.4511    H 1 <0>  0.0000
  29   H9       17.8303    1.5497   25.0110    H 1 <0>  0.0000
  30  H10       15.5510   -5.4097   26.8211    H 1 <0>  0.3999
  31  H11       14.4269   -5.4958   28.1597    H 1 <0>  0.3999
  32  H12       16.5579    4.1597   28.4831    H 1 <0>  0.3999
@<TRIPOS>BOND
    1     1     2  1
    2     1     3  1
    3     2    11  1
    4     3    10  1
    5     3    12  1
    6     4    10  1
    7     4    11  1
    8     4    15  1
    9     5     6  1
   10     5     8  1
   11     6     7  1
   12     6    18  1
   13     7     9  1
   14     7    17  1
   15     8    11  1
   16     8    17  1
   17     9    19  1
   18    13    20  1
   19    14    20  1
   20    16    20  1
   21    19    20  1
   22     1    21  1
   23     2    22  1
   24     5    23  1
   25     5    24  1
   26     6    25  1
   27     7    26  1
   28     8    27  1
   29     9    28  1
   30     9    29  1
   31    12    30  1
   32    12    31  1
   33    18    32  1

@<TRIPOS>MOLECULE
MOL
   32   33    0    0    0
SMALL
USER_CHARGES


@<TRIPOS>ATOM
   1   C1       16.0089   -2.8700   26.8382  C.2 1 <0> -0.1356
   2   C2       16.0441   -1.5486   26.9981  C.2 1 <0> -0.0410
   3   C3       15.1425   -3.6258   27.7799  C.2 1 <0>  0.4856
   4   C4       14.5044   -1.6471   28.8624  C.2 1 <0>  0.8408
   5   C5       16.5842    0.9833   28.9466  C.3 1 <0>  0.0000
   6   C6       17.0064    2.2747   28.2849  C.3 1 <0>  0.2800
   7   C7       16.7283    2.0138   26.8111  C.3 1 <0>  0.2800
   8   C8       15.4230    0.5319   28.0759  C.3 1 <0>  0.5801
   9   C9       17.9106    1.3823   26.0876  C.3 1 <0>  0.2800
  10   N1       14.4539   -3.0225   28.7130  N.2 1 <0> -0.6611
  11   N2       15.3203   -0.8950   27.9817 N.am 1 <0> -0.4690
  12   N3       15.0780   -4.9936   27.6485 N.pl3 1 <0> -0.8501
  13   O1       18.7676   -2.3524   26.1510  O.3 1 <0> -1.0332
  14   O2       20.3972   -0.3812   26.2318  O.3 1 <0> -1.0332
  15   O3       13.8490   -1.0952   29.7481  O.2 1 <0> -0.5698
  16   O4       18.9314   -0.7527   24.1606  O.2 1 <0> -1.0332
  17   O5       15.6319    1.0802   26.7667  O.3 1 <0> -0.5601
  18   O6       16.1866    3.3440   28.7516  O.3 1 <0> -0.6802
  19   O7       17.9091   -0.0135   26.3390  O.3 1 <0> -0.5513
  20   P1       19.0969   -0.9440   25.6653  P.3 1 <0>  1.3711
  21   H1       16.5708   -3.3879   26.0725    H 1 <0>  0.1500
  22   H2       16.6499   -0.9210   26.3539    H 1 <0>  0.1500
  23   H3       17.3979    0.2531   29.0220    H 1 <0>  0.0000
  24   H4       16.2373    1.1853   29.9690    H 1 <0>  0.0000
  25   H5       18.0429    2.5049   28.4876    H 1 <0>  0.0000
  26   H6       16.4305    2.9174   26.2903    H 1 <0>  0.0000
  27   H7       14.4600    0.9003   28.4708    H 1 <0>  0.0000
  28   H8       18.8490    1.8078   26.4511    H 1 <0>  0.0000
  29   H9       17.8303    1.5497   25.0110    H 1 <0>  0.0000
  30  H10       15.6130   -5.4183   26.9300    H 1 <0>  0.3999
  31  H11       14.4994   -5.4955   28.2778    H 1 <0>  0.3999
  32  H12       16.5520    4.1808   28.4551    H 1 <0>  0.3999
@<TRIPOS>BOND
    1     1     2  1
    2     1     3  1
    3     2    11  1
    4     3    10  1
    5     3    12  1
    6     4    10  1
    7     4    11  1
    8     4    15  1
    9     5     6  1
   10     5     8  1
   11     6     7  1
   12     6    18  1
   13     7     9  1
   14     7    17  1
   15     8    11  1
   16     8    17  1
   17     9    19  1
   18    13    20  1
   19    14    20  1
   20    16    20  1
   21    19    20  1
   22     1    21  1
   23     2    22  1
   24     5    23  1
   25     5    24  1
   26     6    25  1
   27     7    26  1
   28     8    27  1
   29     9    28  1
   30     9    29  1
   31    12    30  1
   32    12    31  1
   33    18    32  1

@<TRIPOS>MOLECULE
MOL
   32   33    0    0    0
SMALL
USER_CHARGES


@<TRIPOS>ATOM
   1   C1       16.0499   -2.8749   26.9095  C.2 1 <0> -0.1356
   2   C2       16.0751   -1.5513   27.0512  C.2 1 <0> -0.0410
   3   C3       15.1965   -3.6250   27.8676  C.2 1 <0>  0.4856
   4   C4       14.5498   -1.6371   28.9278  C.2 1 <0>  0.8408
   5   C5       16.6081    1.0112   28.9613  C.3 1 <0>  0.0000
   6   C6       17.0148    2.2970   28.2792  C.3 1 <0>  0.2800
   7   C7       16.7283    2.0138   26.8111  C.3 1 <0>  0.2800
   8   C8       15.4445    0.5385   28.1053  C.3 1 <0>  0.5801
   9   C9       17.9106    1.3823   26.0876  C.3 1 <0>  0.2800
  10   N1       14.5097   -3.0148   28.7975  N.2 1 <0> -0.6611
  11   N2       15.3531   -0.8903   28.0312 N.am 1 <0> -0.4690
  12   N3       15.1425   -4.9949   27.7551 N.pl3 1 <0> -0.8501
  13   O1       18.7676   -2.3524   26.1510  O.3 1 <0> -1.0332
  14   O2       20.3972   -0.3812   26.2318  O.3 1 <0> -1.0332
  15   O3       13.8962   -1.0787   29.8108  O.2 1 <0> -0.5698
  16   O4       18.9314   -0.7527   24.1606  O.2 1 <0> -1.0332
  17   O5       15.6394    1.0707   26.7873  O.3 1 <0> -0.5601
  18   O6       16.1894    3.3657   28.7373  O.3 1 <0> -0.6802
  19   O7       17.9091   -0.0135   26.3390  O.3 1 <0> -0.5513
  20   P1       19.0969   -0.9440   25.6653  P.3 1 <0>  1.3711
  21   H1       16.6105   -3.3985   26.1467    H 1 <0>  0.1500
  22   H2       16.6710   -0.9275   26.3942    H 1 <0>  0.1500
  23   H3       17.4284    0.2889   29.0406    H 1 <0>  0.0000
  24   H4       16.2669    1.2243   29.9834    H 1 <0>  0.0000
  25   H5       18.0508    2.5384   28.4712    H 1 <0>  0.0000
  26   H6       16.4192    2.9077   26.2804    H 1 <0>  0.0000
  27   H7       14.4813    0.9043   28.5022    H 1 <0>  0.0000
  28   H8       18.8490    1.8078   26.4511    H 1 <0>  0.0000
  29   H9       17.8303    1.5497   25.0110    H 1 <0>  0.0000
  30  H10       15.6759   -5.4249   27.0386    H 1 <0>  0.3999
  31  H11       14.5727   -5.4930   28.3954    H 1 <0>  0.3999
  32  H12       16.5458    4.2013   28.4269    H 1 <0>  0.3999
@<TRIPOS>BOND
    1     1     2  1
    2     1     3  1
    3     2    11  1
    4     3    10  1
    5     3    12  1
    6     4    10  1
    7     4    11  1
    8     4    15  1
    9     5     6  1
   10     5     8  1
   11     6     7  1
   12     6    18  1
   13     7     9  1
   14     7    17  1
   15     8    11  1
   16     8    17  1
   17     9    19  1
   18    13    20  1
   19    14    20  1
   20    16    20  1
   21    19    20  1
   22     1    21  1
   23     2    22  1
   24     5    23  1
   25     5    24  1
   26     6    25  1
   27     7    26  1
   28     8    27  1
   29     9    28  1
   30     9    29  1
   31    12    30  1
   32    12    31  1
   33    18    32  1

@<TRIPOS>MOLECULE
MOL
   32   33    0    0    0
SMALL
USER_CHARGES


@<TRIPOS>ATOM
   1   C1       16.0914   -2.8786   26.9805  C.2 1 <0> -0.1356
   2   C2       16.1066   -1.5529   27.1041  C.2 1 <0> -0.0410
   3   C3       15.2512   -3.6226   27.9548  C.2 1 <0>  0.4856
   4   C4       14.5956   -1.6258   28.9928  C.2 1 <0>  0.8408
   5   C5       16.6319    1.0395   28.9755  C.3 1 <0>  0.0000
   6   C6       17.0229    2.3192   28.2731  C.3 1 <0>  0.2800
   7   C7       16.7283    2.0138   26.8111  C.3 1 <0>  0.2800
   8   C8       15.4662    0.5457   28.1344  C.3 1 <0>  0.5801
   9   C9       17.9106    1.3823   26.0876  C.3 1 <0>  0.2800
  10   N1       14.5660   -3.0054   28.8814  N.2 1 <0> -0.6611
  11   N2       15.3861   -0.8847   28.0803 N.am 1 <0> -0.4690
  12   N3       15.2078   -4.9943   27.8613 N.pl3 1 <0> -0.8501
  13   O1       18.7676   -2.3524   26.1510  O.3 1 <0> -1.0332
  14   O2       20.3972   -0.3812   26.2318  O.3 1 <0> -1.0332
  15   O3       13.9437   -1.0609   29.8729  O.2 1 <0> -0.5698
  16   O4       18.9314   -0.7527   24.1606  O.2 1 <0> -1.0332
  17   O5       15.6472    1.0615   26.8080  O.3 1 <0> -0.5601
  18   O6       16.1920    3.3872   28.7228  O.3 1 <0> -0.6802
  19   O7       17.9091   -0.0135   26.3390  O.3 1 <0> -0.5513
  20   P1       19.0969   -0.9440   25.6653  P.3 1 <0>  1.3711
  21   H1       16.6509   -3.4078   26.2208    H 1 <0>  0.1500
  22   H2       16.6926   -0.9332   26.4345    H 1 <0>  0.1500
  23   H3       17.4587    0.3252   29.0586    H 1 <0>  0.0000
  24   H4       16.2963    1.2636   29.9971    H 1 <0>  0.0000
  25   H5       18.0582    2.5718   28.4543    H 1 <0>  0.0000
  26   H6       16.4080    2.8979   26.2706    H 1 <0>  0.0000
  27   H7       14.5028    0.9089   28.5334    H 1 <0>  0.0000
  28   H8       18.8490    1.8078   26.4511    H 1 <0>  0.0000
  29   H9       17.8303    1.5497   25.0110    H 1 <0>  0.0000
  30  H10       15.7397   -5.4296   27.1468    H 1 <0>  0.3999
  31  H11       14.6468   -5.4883   28.5124    H 1 <0>  0.3999
  32  H12       16.5391    4.2215   28.3985    H 1 <0>  0.3999
@<TRIPOS>BOND
    1     1     2  1
    2     1     3  1
    3     2    11  1
    4     3    10  1
    5     3    12  1
    6     4    10  1
    7     4    11  1
    8     4    15  1
    9     5     6  1
   10     5     8  1
   11     6     7  1
   12     6    18  1
   13     7     9  1
   14     7    17  1
   15     8    11  1
   16     8    17  1
   17     9    19  1
   18    13    20  1
   19    14    20  1
   20    16    20  1
   21    19    20  1
   22     1    21  1
   23     2    22  1
   24     5    23  1
   25     5    24  1
   26     6    25  1
   27     7    26  1
   28     8    27  1
   29     9    28  1
   30     9    29  1
   31    12    30  1
   32    12    31  1
   33    18    32  1

@<TRIPOS>MOLECULE
MOL
   32   33    0    0    0
SMALL
USER_CHARGES


@<TRIPOS>ATOM
   1   C1       16.1334   -2.8809   27.0512  C.2 1 <0> -0.1356
   2   C2       16.1385   -1.5536   27.1568  C.2 1 <0> -0.0410
   3   C3       15.3065   -3.6185   28.0417  C.2 1 <0>  0.4856
   4   C4       14.6417   -1.6133   29.0573  C.2 1 <0>  0.8408
   5   C5       16.6556    1.0682   28.9891  C.3 1 <0>  0.0000
   6   C6       17.0309    2.3415   28.2667  C.3 1 <0>  0.2800
   7   C7       16.7283    2.0138   26.8111  C.3 1 <0>  0.2800
   8   C8       15.4880    0.5535   28.1633  C.3 1 <0>  0.5801
   9   C9       17.9106    1.3823   26.0876  C.3 1 <0>  0.2800
  10   N1       14.6229   -2.9945   28.9648  N.2 1 <0> -0.6611
  11   N2       15.4195   -0.8782   28.1291 N.am 1 <0> -0.4690
  12   N3       15.2739   -4.9917   27.9670 N.pl3 1 <0> -0.8501
  13   O1       18.7676   -2.3524   26.1510  O.3 1 <0> -1.0332
  14   O2       20.3972   -0.3812   26.2318  O.3 1 <0> -1.0332
  15   O3       13.9915   -1.0419   29.9344  O.2 1 <0> -0.5698
  16   O4       18.9314   -0.7527   24.1606  O.2 1 <0> -1.0332
  17   O5       15.6552    1.0527   26.8287  O.3 1 <0> -0.5601
  18   O6       16.1943    3.4086   28.7079  O.3 1 <0> -0.6802
  19   O7       17.9091   -0.0135   26.3390  O.3 1 <0> -0.5513
  20   P1       19.0969   -0.9440   25.6653  P.3 1 <0>  1.3711
  21   H1       16.6918   -3.4158   26.2947    H 1 <0>  0.1500
  22   H2       16.7145   -0.9382   26.4746    H 1 <0>  0.1500
  23   H3       17.4889    0.3619   29.0758    H 1 <0>  0.0000
  24   H4       16.3255    1.3034   30.0100    H 1 <0>  0.0000
  25   H5       18.0653    2.6050   28.4368    H 1 <0>  0.0000
  26   H6       16.3968    2.8878   26.2610    H 1 <0>  0.0000
  27   H7       14.5246    0.9141   28.5644    H 1 <0>  0.0000
  28   H8       18.8490    1.8078   26.4511    H 1 <0>  0.0000
  29   H9       17.8303    1.5497   25.0110    H 1 <0>  0.0000
  30  H10       15.8042   -5.4322   27.2546    H 1 <0>  0.3999
  31  H11       14.7217   -5.4814   28.6288    H 1 <0>  0.3999
  32  H12       16.5321    4.2412   28.3699    H 1 <0>  0.3999
@<TRIPOS>BOND
    1     1     2  1
    2     1     3  1
    3     2    11  1
    4     3    10  1
    5     3    12  1
    6     4    10  1
    7     4    11  1
    8     4    15  1
    9     5     6  1
   10     5     8  1
   11     6     7  1
   12     6    18  1
   13     7     9  1
   14     7    17  1
   15     8    11  1
   16     8    17  1
   17     9    19  1
   18    13    20  1
   19    14    20  1
   20    16    20  1
   21    19    20  1
   22     1    21  1
   23     2    22  1
   24     5    23  1
   25     5    24  1
   26     6    25  1
   27     7    26  1
   28     8    27  1
   29     9    28  1
   30     9    29  1
   31    12    30  1
   32    12    31  1
   33    18    32  1

@<TRIPOS>MOLECULE
MOL
   32   33    0    0    0
SMALL
USER_CHARGES


@<TRIPOS>ATOM
   1   C1       16.1760   -2.8819   27.1217  C.2 1 <0> -0.1356
   2   C2       16.1708   -1.5533   27.2093  C.2 1 <0> -0.0410
   3   C3       15.3624   -3.6128   28.1280  C.2 1 <0>  0.4856
   4   C4       14.6882   -1.5996   29.1213  C.2 1 <0>  0.8408
   5   C5       16.6791    1.0973   29.0022  C.3 1 <0>  0.0000
   6   C6       17.0386    2.3637   28.2599  C.3 1 <0>  0.2800
   7   C7       16.7283    2.0138   26.8111  C.3 1 <0>  0.2800
   8   C8       15.5100    0.5618   28.1919  C.3 1 <0>  0.5801
   9   C9       17.9106    1.3823   26.0876  C.3 1 <0>  0.2800
  10   N1       14.6802   -2.9820   29.0475  N.2 1 <0> -0.6611
  11   N2       15.4531   -0.8707   28.1776 N.am 1 <0> -0.4690
  12   N3       15.3407   -4.9871   28.0721 N.pl3 1 <0> -0.8501
  13   O1       18.7676   -2.3524   26.1510  O.3 1 <0> -1.0332
  14   O2       20.3972   -0.3812   26.2318  O.3 1 <0> -1.0332
  15   O3       14.0396   -1.0217   29.9953  O.2 1 <0> -0.5698
  16   O4       18.9314   -0.7527   24.1606  O.2 1 <0> -1.0332
  17   O5       15.6634    1.0442   26.8495  O.3 1 <0> -0.5601
  18   O6       16.1963    3.4298   28.6927  O.3 1 <0> -0.6802
  19   O7       17.9091   -0.0135   26.3390  O.3 1 <0> -0.5513
  20   P1       19.0969   -0.9440   25.6653  P.3 1 <0>  1.3711
  21   H1       16.7334   -3.4224   26.3684    H 1 <0>  0.1500
  22   H2       16.7367   -0.9426   26.5146    H 1 <0>  0.1500
  23   H3       17.5189    0.3991   29.0923    H 1 <0>  0.0000
  24   H4       16.3544    1.3436   30.0221    H 1 <0>  0.0000
  25   H5       18.0719    2.6380   28.4189    H 1 <0>  0.0000
  26   H6       16.3855    2.8775   26.2517    H 1 <0>  0.0000
  27   H7       14.5464    0.9199   28.5951    H 1 <0>  0.0000
  28   H8       18.8490    1.8078   26.4511    H 1 <0>  0.0000
  29   H9       17.8303    1.5497   25.0110    H 1 <0>  0.0000
  30  H10       15.8695   -5.4329   27.3619    H 1 <0>  0.3999
  31  H11       14.7973   -5.4723   28.7445    H 1 <0>  0.3999
  32  H12       16.5248    4.2605   28.3410    H 1 <0>  0.3999
@<TRIPOS>BOND
    1     1     2  1
    2     1     3  1
    3     2    11  1
    4     3    10  1
    5     3    12  1
    6     4    10  1
    7     4    11  1
    8     4    15  1
    9     5     6  1
   10     5     8  1
   11     6     7  1
   12     6    18  1
   13     7     9  1
   14     7    17  1
   15     8    11  1
   16     8    17  1
   17     9    19  1
   18    13    20  1
   19    14    20  1
   20    16    20  1
   21    19    20  1
   22     1    21  1
   23     2    22  1
   24     5    23  1
   25     5    24  1
   26     6    25  1
   27     7    26  1
   28     8    27  1
   29     9    28  1
   30     9    29  1
   31    12    30  1
   32    12    31  1
   33    18    32  1

@<TRIPOS>MOLECULE
MOL
   32   33    0    0    0
SMALL
USER_CHARGES


@<TRIPOS>ATOM
   1   C1       16.2191   -2.8816   27.1919  C.2 1 <0> -0.1356
   2   C2       16.2034   -1.5521   27.2615  C.2 1 <0> -0.0410
   3   C3       15.4189   -3.6055   28.2139  C.2 1 <0>  0.4856
   4   C4       14.7351   -1.5846   29.1847  C.2 1 <0>  0.8408
   5   C5       16.7025    1.1268   29.0147  C.3 1 <0>  0.0000
   6   C6       17.0460    2.3859   28.2527  C.3 1 <0>  0.2800
   7   C7       16.7283    2.0138   26.8111  C.3 1 <0>  0.2800
   8   C8       15.5321    0.5707   28.2203  C.3 1 <0>  0.5801
   9   C9       17.9106    1.3823   26.0876  C.3 1 <0>  0.2800
  10   N1       14.7381   -2.9679   29.1297  N.2 1 <0> -0.6611
  11   N2       15.4871   -0.8623   28.2257 N.am 1 <0> -0.4690
  12   N3       15.4082   -4.9805   28.1767 N.pl3 1 <0> -0.8501
  13   O1       18.7676   -2.3524   26.1510  O.3 1 <0> -1.0332
  14   O2       20.3972   -0.3812   26.2318  O.3 1 <0> -1.0332
  15   O3       14.0879   -1.0002   30.0555  O.2 1 <0> -0.5698
  16   O4       18.9314   -0.7527   24.1606  O.2 1 <0> -1.0332
  17   O5       15.6718    1.0361   26.8704  O.3 1 <0> -0.5601
  18   O6       16.1981    3.4508   28.6772  O.3 1 <0> -0.6802
  19   O7       17.9091   -0.0135   26.3390  O.3 1 <0> -0.5513
  20   P1       19.0969   -0.9440   25.6653  P.3 1 <0>  1.3711
  21   H1       16.7756   -3.4277   26.4419    H 1 <0>  0.1500
  22   H2       16.7592   -0.9461   26.5546    H 1 <0>  0.1500
  23   H3       17.5487    0.4368   29.1081    H 1 <0>  0.0000
  24   H4       16.3830    1.3842   30.0335    H 1 <0>  0.0000
  25   H5       18.0782    2.6708   28.4005    H 1 <0>  0.0000
  26   H6       16.3743    2.8669   26.2426    H 1 <0>  0.0000
  27   H7       14.5685    0.9263   28.6256    H 1 <0>  0.0000
  28   H8       18.8490    1.8078   26.4511    H 1 <0>  0.0000
  29   H9       17.8303    1.5497   25.0110    H 1 <0>  0.0000
  30  H10       15.9356   -5.4315   27.4687    H 1 <0>  0.3999
  31  H11       14.8738   -5.4611   28.8595    H 1 <0>  0.3999
  32  H12       16.5170    4.2793   28.3119    H 1 <0>  0.3999
@<TRIPOS>BOND
    1     1     2  1
    2     1     3  1
    3     2    11  1
    4     3    10  1
    5     3    12  1
    6     4    10  1
    7     4    11  1
    8     4    15  1
    9     5     6  1
   10     5     8  1
   11     6     7  1
   12     6    18  1
   13     7     9  1
   14     7    17  1
   15     8    11  1
   16     8    17  1
   17     9    19  1
   18    13    20  1
   19    14    20  1
   20    16    20  1
   21    19    20  1
   22     1    21  1
   23     2    22  1
   24     5    23  1
   25     5    24  1
   26     6    25  1
   27     7    26  1
   28     8    27  1
   29     9    28  1
   30     9    29  1
   31    12    30  1
   32    12    31  1
   33    18    32  1

@<TRIPOS>MOLECULE
MOL
   32   33    0    0    0
SMALL
USER_CHARGES


@<TRIPOS>ATOM
   1   C1       16.2627   -2.8801   27.2617  C.2 1 <0> -0.1356
   2   C2       16.2364   -1.5498   27.3135  C.2 1 <0> -0.0410
   3   C3       15.4759   -3.5965   28.2992  C.2 1 <0>  0.4856
   4   C4       14.7822   -1.5683   29.2476  C.2 1 <0>  0.8408
   5   C5       16.7257    1.1566   29.0266  C.3 1 <0>  0.0000
   6   C6       17.0532    2.4080   28.2452  C.3 1 <0>  0.2800
   7   C7       16.7283    2.0138   26.8111  C.3 1 <0>  0.2800
   8   C8       15.5543    0.5801   28.2483  C.3 1 <0>  0.5801
   9   C9       17.9106    1.3823   26.0876  C.3 1 <0>  0.2800
  10   N1       14.7964   -2.9522   29.2113  N.2 1 <0> -0.6611
  11   N2       15.5213   -0.8530   28.2735 N.am 1 <0> -0.4690
  12   N3       15.4764   -4.9719   28.2808 N.pl3 1 <0> -0.8501
  13   O1       18.7676   -2.3524   26.1510  O.3 1 <0> -1.0332
  14   O2       20.3972   -0.3812   26.2318  O.3 1 <0> -1.0332
  15   O3       14.1365   -0.9775   30.1151  O.2 1 <0> -0.5698
  16   O4       18.9314   -0.7527   24.1606  O.2 1 <0> -1.0332
  17   O5       15.6804    1.0283   26.8913  O.3 1 <0> -0.5601
  18   O6       16.1995    3.4715   28.6614  O.3 1 <0> -0.6802
  19   O7       17.9091   -0.0135   26.3390  O.3 1 <0> -0.5513
  20   P1       19.0969   -0.9440   25.6653  P.3 1 <0>  1.3711
  21   H1       16.8183   -3.4317   26.5152    H 1 <0>  0.1500
  22   H2       16.7820   -0.9490   26.5944    H 1 <0>  0.1500
  23   H3       17.5783    0.4750   29.1232    H 1 <0>  0.0000
  24   H4       16.4114    1.4252   30.0442    H 1 <0>  0.0000
  25   H5       18.0841    2.7035   28.3816    H 1 <0>  0.0000
  26   H6       16.3632    2.8562   26.2337    H 1 <0>  0.0000
  27   H7       14.5907    0.9332   28.6558    H 1 <0>  0.0000
  28   H8       18.8490    1.8078   26.4511    H 1 <0>  0.0000
  29   H9       17.8303    1.5497   25.0110    H 1 <0>  0.0000
  30  H10       16.0025   -5.4282   27.5751    H 1 <0>  0.3999
  31  H11       14.9509   -5.4476   28.9738    H 1 <0>  0.3999
  32  H12       16.5089    4.2976   28.2827    H 1 <0>  0.3999
@<TRIPOS>BOND
    1     1     2  1
    2     1     3  1
    3     2    11  1
    4     3    10  1
    5     3    12  1
    6     4    10  1
    7     4    11  1
    8     4    15  1
    9     5     6  1
   10     5     8  1
   11     6     7  1
   12     6    18  1
   13     7     9  1
   14     7    17  1
   15     8    11  1
   16     8    17  1
   17     9    19  1
   18    13    20  1
   19    14    20  1
   20    16    20  1
   21    19    20  1
   22     1    21  1
   23     2    22  1
   24     5    23  1
   25     5    24  1
   26     6    25  1
   27     7    26  1
   28     8    27  1
   29     9    28  1
   30     9    29  1
   31    12    30  1
   32    12    31  1
   33    18    32  1

@<TRIPOS>MOLECULE
MOL
   32   33    0    0    0
SMALL
USER_CHARGES


@<TRIPOS>ATOM
   1   C1       16.3068   -2.8772   27.3312  C.2 1 <0> -0.1356
   2   C2       16.2698   -1.5466   27.3652  C.2 1 <0> -0.0410
   3   C3       15.5334   -3.5859   28.3840  C.2 1 <0>  0.4856
   4   C4       14.8297   -1.5508   29.3099  C.2 1 <0>  0.8408
   5   C5       16.7488    1.1868   29.0379  C.3 1 <0>  0.0000
   6   C6       17.0602    2.4301   28.2373  C.3 1 <0>  0.2800
   7   C7       16.7283    2.0138   26.8111  C.3 1 <0>  0.2800
   8   C8       15.5766    0.5902   28.2761  C.3 1 <0>  0.5801
   9   C9       17.9106    1.3823   26.0876  C.3 1 <0>  0.2800
  10   N1       14.8551   -2.9349   29.2922  N.2 1 <0> -0.6611
  11   N2       15.5558   -0.8427   28.3209 N.am 1 <0> -0.4690
  12   N3       15.5453   -4.9614   28.3841 N.pl3 1 <0> -0.8501
  13   O1       18.7676   -2.3524   26.1510  O.3 1 <0> -1.0332
  14   O2       20.3972   -0.3812   26.2318  O.3 1 <0> -1.0332
  15   O3       14.1853   -0.9537   30.1741  O.2 1 <0> -0.5698
  16   O4       18.9314   -0.7527   24.1606  O.2 1 <0> -1.0332
  17   O5       15.6893    1.0209   26.9123  O.3 1 <0> -0.5601
  18   O6       16.2007    3.4921   28.6454  O.3 1 <0> -0.6802
  19   O7       17.9091   -0.0135   26.3390  O.3 1 <0> -0.5513
  20   P1       19.0969   -0.9440   25.6653  P.3 1 <0>  1.3711
  21   H1       16.8616   -3.4343   26.5882    H 1 <0>  0.1500
  22   H2       16.8052   -0.9511   26.6341    H 1 <0>  0.1500
  23   H3       17.6077    0.5135   29.1375    H 1 <0>  0.0000
  24   H4       16.4396    1.4666   30.0541    H 1 <0>  0.0000
  25   H5       18.0895    2.7359   28.3622    H 1 <0>  0.0000
  26   H6       16.3520    2.8452   26.2251    H 1 <0>  0.0000
  27   H7       14.6131    0.9408   28.6858    H 1 <0>  0.0000
  28   H8       18.8490    1.8078   26.4511    H 1 <0>  0.0000
  29   H9       17.8303    1.5497   25.0110    H 1 <0>  0.0000
  30  H10       16.0701   -5.4229   27.6809    H 1 <0>  0.3999
  31  H11       15.0288   -5.4319   29.0874    H 1 <0>  0.3999
  32  H12       16.5005    4.3155   28.2532    H 1 <0>  0.3999
@<TRIPOS>BOND
    1     1     2  1
    2     1     3  1
    3     2    11  1
    4     3    10  1
    5     3    12  1
    6     4    10  1
    7     4    11  1
    8     4    15  1
    9     5     6  1
   10     5     8  1
   11     6     7  1
   12     6    18  1
   13     7     9  1
   14     7    17  1
   15     8    11  1
   16     8    17  1
   17     9    19  1
   18    13    20  1
   19    14    20  1
   20    16    20  1
   21    19    20  1
   22     1    21  1
   23     2    22  1
   24     5    23  1
   25     5    24  1
   26     6    25  1
   27     7    26  1
   28     8    27  1
   29     9    28  1
   30     9    29  1
   31    12    30  1
   32    12    31  1
   33    18    32  1

@<TRIPOS>MOLECULE
MOL
   32   33    0    0    0
SMALL
USER_CHARGES


@<TRIPOS>ATOM
   1   C1       16.3513   -2.8730   27.4003  C.2 1 <0> -0.1356
   2   C2       16.3035   -1.5424   27.4166  C.2 1 <0> -0.0410
   3   C3       15.5915   -3.5737   28.4682  C.2 1 <0>  0.4856
   4   C4       14.8775   -1.5321   29.3717  C.2 1 <0>  0.8408
   5   C5       16.7717    1.2173   29.0487  C.3 1 <0>  0.0000
   6   C6       17.0670    2.4522   28.2291  C.3 1 <0>  0.2800
   7   C7       16.7283    2.0138   26.8111  C.3 1 <0>  0.2800
   8   C8       15.5991    0.6007   28.3036  C.3 1 <0>  0.5801
   9   C9       17.9106    1.3823   26.0876  C.3 1 <0>  0.2800
  10   N1       14.9143   -2.9160   29.3725  N.2 1 <0> -0.6611
  11   N2       15.5905   -0.8315   28.3679 N.am 1 <0> -0.4690
  12   N3       15.6148   -4.9489   28.4869 N.pl3 1 <0> -0.8501
  13   O1       18.7676   -2.3524   26.1510  O.3 1 <0> -1.0332
  14   O2       20.3972   -0.3812   26.2318  O.3 1 <0> -1.0332
  15   O3       14.2344   -0.9286   30.2323  O.2 1 <0> -0.5698
  16   O4       18.9314   -0.7527   24.1606  O.2 1 <0> -1.0332
  17   O5       15.6984    1.0138   26.9333  O.3 1 <0> -0.5601
  18   O6       16.2016    3.5125   28.6290  O.3 1 <0> -0.6802
  19   O7       17.9091   -0.0135   26.3390  O.3 1 <0> -0.5513
  20   P1       19.0969   -0.9440   25.6653  P.3 1 <0>  1.3711
  21   H1       16.9054   -3.4355   26.6609    H 1 <0>  0.1500
  22   H2       16.8286   -0.9525   26.6736    H 1 <0>  0.1500
  23   H3       17.6368    0.5526   29.1511    H 1 <0>  0.0000
  24   H4       16.4675    1.5083   30.0632    H 1 <0>  0.0000
  25   H5       18.0945    2.7681   28.3423    H 1 <0>  0.0000
  26   H6       16.3409    2.8341   26.2166    H 1 <0>  0.0000
  27   H7       14.6357    0.9490   28.7155    H 1 <0>  0.0000
  28   H8       18.8490    1.8078   26.4511    H 1 <0>  0.0000
  29   H9       17.8303    1.5497   25.0110    H 1 <0>  0.0000
  30  H10       16.1384   -5.4156   27.7861    H 1 <0>  0.3999
  31  H11       15.1073   -5.4141   29.2002    H 1 <0>  0.3999
  32  H12       16.4916    4.3329   28.2236    H 1 <0>  0.3999
@<TRIPOS>BOND
    1     1     2  1
    2     1     3  1
    3     2    11  1
    4     3    10  1
    5     3    12  1
    6     4    10  1
    7     4    11  1
    8     4    15  1
    9     5     6  1
   10     5     8  1
   11     6     7  1
   12     6    18  1
   13     7     9  1
   14     7    17  1
   15     8    11  1
   16     8    17  1
   17     9    19  1
   18    13    20  1
   19    14    20  1
   20    16    20  1
   21    19    20  1
   22     1    21  1
   23     2    22  1
   24     5    23  1
   25     5    24  1
   26     6    25  1
   27     7    26  1
   28     8    27  1
   29     9    28  1
   30     9    29  1
   31    12    30  1
   32    12    31  1
   33    18    32  1

@<TRIPOS>MOLECULE
MOL
   32   33    0    0    0
SMALL
USER_CHARGES


@<TRIPOS>ATOM
   1   C1       16.3963   -2.8674   27.4690  C.2 1 <0> -0.1356
   2   C2       16.3375   -1.5373   27.4677  C.2 1 <0> -0.0410
   3   C3       15.6501   -3.5599   28.5518  C.2 1 <0>  0.4856
   4   C4       14.9256   -1.5121   29.4328  C.2 1 <0>  0.8408
   5   C5       16.7944    1.2481   29.0589  C.3 1 <0>  0.0000
   6   C6       17.0735    2.4741   28.2205  C.3 1 <0>  0.2800
   7   C7       16.7283    2.0138   26.8111  C.3 1 <0>  0.2800
   8   C8       15.6217    0.6119   28.3307  C.3 1 <0>  0.5801
   9   C9       17.9106    1.3823   26.0876  C.3 1 <0>  0.2800
  10   N1       14.9739   -2.8956   29.4521  N.2 1 <0> -0.6611
  11   N2       15.6255   -0.8194   28.4144 N.am 1 <0> -0.4690
  12   N3       15.6850   -4.9345   28.5889 N.pl3 1 <0> -0.8501
  13   O1       18.7676   -2.3524   26.1510  O.3 1 <0> -1.0332
  14   O2       20.3972   -0.3812   26.2318  O.3 1 <0> -1.0332
  15   O3       14.2836   -0.9023   30.2899  O.2 1 <0> -0.5698
  16   O4       18.9314   -0.7527   24.1606  O.2 1 <0> -1.0332
  17   O5       15.7077    1.0071   26.9543  O.3 1 <0> -0.5601
  18   O6       16.2021    3.5326   28.6124  O.3 1 <0> -0.6802
  19   O7       17.9091   -0.0135   26.3390  O.3 1 <0> -0.5513
  20   P1       19.0969   -0.9440   25.6653  P.3 1 <0>  1.3711
  21   H1       16.9497   -3.4354   26.7332    H 1 <0>  0.1500
  22   H2       16.8524   -0.9532   26.7130    H 1 <0>  0.1500
  23   H3       17.6657    0.5920   29.1639    H 1 <0>  0.0000
  24   H4       16.4950    1.5503   30.0715    H 1 <0>  0.0000
  25   H5       18.0991    2.8000   28.3220    H 1 <0>  0.0000
  26   H6       16.3298    2.8227   26.2084    H 1 <0>  0.0000
  27   H7       14.6583    0.9577   28.7449    H 1 <0>  0.0000
  28   H8       18.8490    1.8078   26.4511    H 1 <0>  0.0000
  29   H9       17.8303    1.5497   25.0110    H 1 <0>  0.0000
  30  H10       16.2074   -5.4062   27.8907    H 1 <0>  0.3999
  31  H11       15.1865   -5.3941   29.3121    H 1 <0>  0.3999
  32  H12       16.4824    4.3499   28.1938    H 1 <0>  0.3999
@<TRIPOS>BOND
    1     1     2  1
    2     1     3  1
    3     2    11  1
    4     3    10  1
    5     3    12  1
    6     4    10  1
    7     4    11  1
    8     4    15  1
    9     5     6  1
   10     5     8  1
   11     6     7  1
   12     6    18  1
   13     7     9  1
   14     7    17  1
   15     8    11  1
   16     8    17  1
   17     9    19  1
   18    13    20  1
   19    14    20  1
   20    16    20  1
   21    19    20  1
   22     1    21  1
   23     2    22  1
   24     5    23  1
   25     5    24  1
   26     6    25  1
   27     7    26  1
   28     8    27  1
   29     9    28  1
   30     9    29  1
   31    12    30  1
   32    12    31  1
   33    18    32  1

@<TRIPOS>MOLECULE
MOL
   32   33    0    0    0
SMALL
USER_CHARGES


@<TRIPOS>ATOM
   1   C1       16.4418   -2.8606   27.5374  C.2 1 <0> -0.1356
   2   C2       16.3719   -1.5311   27.5185  C.2 1 <0> -0.0410
   3   C3       15.7091   -3.5444   28.6348  C.2 1 <0>  0.4856
   4   C4       14.9739   -1.4910   29.4933  C.2 1 <0>  0.8408
   5   C5       16.8169    1.2793   29.0685  C.3 1 <0>  0.0000
   6   C6       17.0798    2.4961   28.2116  C.3 1 <0>  0.2800
   7   C7       16.7283    2.0138   26.8111  C.3 1 <0>  0.2800
   8   C8       15.6443    0.6236   28.3576  C.3 1 <0>  0.5801
   9   C9       17.9106    1.3823   26.0876  C.3 1 <0>  0.2800
  10   N1       15.0340   -2.8735   29.5309  N.2 1 <0> -0.6611
  11   N2       15.6607   -0.8063   28.4606 N.am 1 <0> -0.4690
  12   N3       15.7558   -4.9181   28.6902 N.pl3 1 <0> -0.8501
  13   O1       18.7676   -2.3524   26.1510  O.3 1 <0> -1.0332
  14   O2       20.3972   -0.3812   26.2318  O.3 1 <0> -1.0332
  15   O3       14.3331   -0.8749   30.3467  O.2 1 <0> -0.5698
  16   O4       18.9314   -0.7527   24.1606  O.2 1 <0> -1.0332
  17   O5       15.7171    1.0008   26.9753  O.3 1 <0> -0.5601
  18   O6       16.2024    3.5526   28.5955  O.3 1 <0> -0.6802
  19   O7       17.9091   -0.0135   26.3390  O.3 1 <0> -0.5513
  20   P1       19.0969   -0.9440   25.6653  P.3 1 <0>  1.3711
  21   H1       16.9946   -3.4339   26.8053    H 1 <0>  0.1500
  22   H2       16.8764   -0.9531   26.7522    H 1 <0>  0.1500
  23   H3       17.6944    0.6319   29.1760    H 1 <0>  0.0000
  24   H4       16.5223    1.5927   30.0791    H 1 <0>  0.0000
  25   H5       18.1034    2.8317   28.3012    H 1 <0>  0.0000
  26   H6       16.3188    2.8111   26.2005    H 1 <0>  0.0000
  27   H7       14.6811    0.9670   28.7741    H 1 <0>  0.0000
  28   H8       18.8490    1.8078   26.4511    H 1 <0>  0.0000
  29   H9       17.8303    1.5497   25.0110    H 1 <0>  0.0000
  30  H10       16.2770   -5.3949   27.9947    H 1 <0>  0.3999
  31  H11       15.2663   -5.3719   29.4232    H 1 <0>  0.3999
  32  H12       16.4729    4.3663   28.1639    H 1 <0>  0.3999
@<TRIPOS>BOND
    1     1     2  1
    2     1     3  1
    3     2    11  1
    4     3    10  1
    5     3    12  1
    6     4    10  1
    7     4    11  1
    8     4    15  1
    9     5     6  1
   10     5     8  1
   11     6     7  1
   12     6    18  1
   13     7     9  1
   14     7    17  1
   15     8    11  1
   16     8    17  1
   17     9    19  1
   18    13    20  1
   19    14    20  1
   20    16    20  1
   21    19    20  1
   22     1    21  1
   23     2    22  1
   24     5    23  1
   25     5    24  1
   26     6    25  1
   27     7    26  1
   28     8    27  1
   29     9    28  1
   30     9    29  1
   31    12    30  1
   32    12    31  1
   33    18    32  1

@<TRIPOS>MOLECULE
MOL
   32   33    0    0    0
SMALL
USER_CHARGES


@<TRIPOS>ATOM
   1   C1       16.4876   -2.8525   27.6053  C.2 1 <0> -0.1356
   2   C2       16.4065   -1.5240   27.5689  C.2 1 <0> -0.0410
   3   C3       15.7686   -3.5274   28.7172  C.2 1 <0>  0.4856
   4   C4       15.0225   -1.4686   29.5531  C.2 1 <0>  0.8408
   5   C5       16.8392    1.3107   29.0775  C.3 1 <0>  0.0000
   6   C6       17.0858    2.5179   28.2024  C.3 1 <0>  0.2800
   7   C7       16.7283    2.0138   26.8111  C.3 1 <0>  0.2800
   8   C8       15.6671    0.6358   28.3841  C.3 1 <0>  0.5801
   9   C9       17.9106    1.3823   26.0876  C.3 1 <0>  0.2800
  10   N1       15.0943   -2.8500   29.6090  N.2 1 <0> -0.6611
  11   N2       15.6961   -0.7924   28.5063 N.am 1 <0> -0.4690
  12   N3       15.8271   -4.8997   28.7908 N.pl3 1 <0> -0.8501
  13   O1       18.7676   -2.3524   26.1510  O.3 1 <0> -1.0332
  14   O2       20.3972   -0.3812   26.2318  O.3 1 <0> -1.0332
  15   O3       14.3827   -0.8462   30.4028  O.2 1 <0> -0.5698
  16   O4       18.9314   -0.7527   24.1606  O.2 1 <0> -1.0332
  17   O5       15.7268    0.9948   26.9964  O.3 1 <0> -0.5601
  18   O6       16.2025    3.5723   28.5783  O.3 1 <0> -0.6802
  19   O7       17.9091   -0.0135   26.3390  O.3 1 <0> -0.5513
  20   P1       19.0969   -0.9440   25.6653  P.3 1 <0>  1.3711
  21   H1       17.0400   -3.4311   26.8770    H 1 <0>  0.1500
  22   H2       16.9007   -0.9523   26.7912    H 1 <0>  0.1500
  23   H3       17.7229    0.6721   29.1874    H 1 <0>  0.0000
  24   H4       16.5493    1.6355   30.0859    H 1 <0>  0.0000
  25   H5       18.1071    2.8632   28.2799    H 1 <0>  0.0000
  26   H6       16.3078    2.7994   26.1928    H 1 <0>  0.0000
  27   H7       14.7041    0.9769   28.8029    H 1 <0>  0.0000
  28   H8       18.8490    1.8078   26.4511    H 1 <0>  0.0000
  29   H9       17.8303    1.5497   25.0110    H 1 <0>  0.0000
  30  H10       16.3473   -5.3817   28.0980    H 1 <0>  0.3999
  31  H11       15.3467   -5.3476   29.5334    H 1 <0>  0.3999
  32  H12       16.4630    4.3823   28.1338    H 1 <0>  0.3999
@<TRIPOS>BOND
    1     1     2  1
    2     1     3  1
    3     2    11  1
    4     3    10  1
    5     3    12  1
    6     4    10  1
    7     4    11  1
    8     4    15  1
    9     5     6  1
   10     5     8  1
   11     6     7  1
   12     6    18  1
   13     7     9  1
   14     7    17  1
   15     8    11  1
   16     8    17  1
   17     9    19  1
   18    13    20  1
   19    14    20  1
   20    16    20  1
   21    19    20  1
   22     1    21  1
   23     2    22  1
   24     5    23  1
   25     5    24  1
   26     6    25  1
   27     7    26  1
   28     8    27  1
   29     9    28  1
   30     9    29  1
   31    12    30  1
   32    12    31  1
   33    18    32  1

@<TRIPOS>MOLECULE
MOL
   32   33    0    0    0
SMALL
USER_CHARGES


@<TRIPOS>ATOM
   1   C1       16.5339   -2.8431   27.6727  C.2 1 <0> -0.1356
   2   C2       16.4415   -1.5159   27.6190  C.2 1 <0> -0.0410
   3   C3       15.8285   -3.5087   28.7988  C.2 1 <0>  0.4856
   4   C4       15.0713   -1.4449   29.6123  C.2 1 <0>  0.8408
   5   C5       16.8613    1.3425   29.0859  C.3 1 <0>  0.0000
   6   C6       17.0915    2.5397   28.1928  C.3 1 <0>  0.2800
   7   C7       16.7283    2.0138   26.8111  C.3 1 <0>  0.2800
   8   C8       15.6899    0.6486   28.4103  C.3 1 <0>  0.5801
   9   C9       17.9106    1.3823   26.0876  C.3 1 <0>  0.2800
  10   N1       15.1551   -2.8248   29.6863  N.2 1 <0> -0.6611
  11   N2       15.7317   -0.7775   28.5515 N.am 1 <0> -0.4690
  12   N3       15.8990   -4.8794   28.8906 N.pl3 1 <0> -0.8501
  13   O1       18.7676   -2.3524   26.1510  O.3 1 <0> -1.0332
  14   O2       20.3972   -0.3812   26.2318  O.3 1 <0> -1.0332
  15   O3       14.4325   -0.8164   30.4581  O.2 1 <0> -0.5698
  16   O4       18.9314   -0.7527   24.1606  O.2 1 <0> -1.0332
  17   O5       15.7367    0.9892   27.0174  O.3 1 <0> -0.5601
  18   O6       16.2022    3.5917   28.5609  O.3 1 <0> -0.6802
  19   O7       17.9091   -0.0135   26.3390  O.3 1 <0> -0.5513
  20   P1       19.0969   -0.9440   25.6653  P.3 1 <0>  1.3711
  21   H1       17.0858   -3.4270   26.9483    H 1 <0>  0.1500
  22   H2       16.9253   -0.9508   26.8301    H 1 <0>  0.1500
  23   H3       17.7511    0.7127   29.1980    H 1 <0>  0.0000
  24   H4       16.5760    1.6785   30.0920    H 1 <0>  0.0000
  25   H5       18.1105    2.8944   28.2582    H 1 <0>  0.0000
  26   H6       16.2968    2.7874   26.1853    H 1 <0>  0.0000
  27   H7       14.7272    0.9874   28.8315    H 1 <0>  0.0000
  28   H8       18.8490    1.8078   26.4511    H 1 <0>  0.0000
  29   H9       17.8303    1.5497   25.0110    H 1 <0>  0.0000
  30  H10       16.4182   -5.3664   28.2005    H 1 <0>  0.3999
  31  H11       15.4277   -5.3211   29.6426    H 1 <0>  0.3999
  32  H12       16.4528    4.3978   28.1035    H 1 <0>  0.3999
@<TRIPOS>BOND
    1     1     2  1
    2     1     3  1
    3     2    11  1
    4     3    10  1
    5     3    12  1
    6     4    10  1
    7     4    11  1
    8     4    15  1
    9     5     6  1
   10     5     8  1
   11     6     7  1
   12     6    18  1
   13     7     9  1
   14     7    17  1
   15     8    11  1
   16     8    17  1
   17     9    19  1
   18    13    20  1
   19    14    20  1
   20    16    20  1
   21    19    20  1
   22     1    21  1
   23     2    22  1
   24     5    23  1
   25     5    24  1
   26     6    25  1
   27     7    26  1
   28     8    27  1
   29     9    28  1
   30     9    29  1
   31    12    30  1
   32    12    31  1
   33    18    32  1

@<TRIPOS>MOLECULE
MOL
   32   33    0    0    0
SMALL
USER_CHARGES


@<TRIPOS>ATOM
   1   C1       16.5806   -2.8324   27.7397  C.2 1 <0> -0.1356
   2   C2       16.4767   -1.5069   27.6687  C.2 1 <0> -0.0410
   3   C3       15.8889   -3.4884   28.8798  C.2 1 <0>  0.4856
   4   C4       15.1204   -1.4201   29.6708  C.2 1 <0>  0.8408
   5   C5       16.8833    1.3746   29.0938  C.3 1 <0>  0.0000
   6   C6       17.0970    2.5614   28.1829  C.3 1 <0>  0.2800
   7   C7       16.7283    2.0138   26.8111  C.3 1 <0>  0.2800
   8   C8       15.7129    0.6619   28.4361  C.3 1 <0>  0.5801
   9   C9       17.9106    1.3823   26.0876  C.3 1 <0>  0.2800
  10   N1       15.2162   -2.7981   29.7629  N.2 1 <0> -0.6611
  11   N2       15.7676   -0.7618   28.5963 N.am 1 <0> -0.4690
  12   N3       15.9715   -4.8571   28.9895 N.pl3 1 <0> -0.8501
  13   O1       18.7676   -2.3524   26.1510  O.3 1 <0> -1.0332
  14   O2       20.3972   -0.3812   26.2318  O.3 1 <0> -1.0332
  15   O3       14.4824   -0.7855   30.5127  O.2 1 <0> -0.5698
  16   O4       18.9314   -0.7527   24.1606  O.2 1 <0> -1.0332
  17   O5       15.7468    0.9840   27.0385  O.3 1 <0> -0.5601
  18   O6       16.2016    3.6109   28.5432  O.3 1 <0> -0.6802
  19   O7       17.9091   -0.0135   26.3390  O.3 1 <0> -0.5513
  20   P1       19.0969   -0.9440   25.6653  P.3 1 <0>  1.3711
  21   H1       17.1322   -3.4215   27.0192    H 1 <0>  0.1500
  22   H2       16.9501   -0.9485   26.8687    H 1 <0>  0.1500
  23   H3       17.7790    0.7537   29.2078    H 1 <0>  0.0000
  24   H4       16.6023    1.7218   30.0972    H 1 <0>  0.0000
  25   H5       18.1135    2.9253   28.2361    H 1 <0>  0.0000
  26   H6       16.2859    2.7753   26.1781    H 1 <0>  0.0000
  27   H7       14.7503    0.9985   28.8597    H 1 <0>  0.0000
  28   H8       18.8490    1.8078   26.4511    H 1 <0>  0.0000
  29   H9       17.8303    1.5497   25.0110    H 1 <0>  0.0000
  30  H10       16.4898   -5.3492   28.3024    H 1 <0>  0.3999
  31  H11       15.5093   -5.2924   29.7509    H 1 <0>  0.3999
  32  H12       16.4422    4.4127   28.0732    H 1 <0>  0.3999
@<TRIPOS>BOND
    1     1     2  1
    2     1     3  1
    3     2    11  1
    4     3    10  1
    5     3    12  1
    6     4    10  1
    7     4    11  1
    8     4    15  1
    9     5     6  1
   10     5     8  1
   11     6     7  1
   12     6    18  1
   13     7     9  1
   14     7    17  1
   15     8    11  1
   16     8    17  1
   17     9    19  1
   18    13    20  1
   19    14    20  1
   20    16    20  1
   21    19    20  1
   22     1    21  1
   23     2    22  1
   24     5    23  1
   25     5    24  1
   26     6    25  1
   27     7    26  1
   28     8    27  1
   29     9    28  1
   30     9    29  1
   31    12    30  1
   32    12    31  1
   33    18    32  1

@<TRIPOS>MOLECULE
MOL
   32   33    0    0    0
SMALL
USER_CHARGES


@<TRIPOS>ATOM
   1   C1       16.6277   -2.8204   27.8061  C.2 1 <0> -0.1356
   2   C2       16.5123   -1.4969   27.7180  C.2 1 <0> -0.0410
   3   C3       15.9497   -3.4666   28.9601  C.2 1 <0>  0.4856
   4   C4       15.1696   -1.3941   29.7286  C.2 1 <0>  0.8408
   5   C5       16.9050    1.4069   29.1010  C.3 1 <0>  0.0000
   6   C6       17.1023    2.5830   28.1726  C.3 1 <0>  0.2800
   7   C7       16.7283    2.0138   26.8111  C.3 1 <0>  0.2800
   8   C8       15.7359    0.6758   28.4616  C.3 1 <0>  0.5801
   9   C9       17.9106    1.3823   26.0876  C.3 1 <0>  0.2800
  10   N1       15.2776   -2.7699   29.8386  N.2 1 <0> -0.6611
  11   N2       15.8036   -0.7451   28.6407 N.am 1 <0> -0.4690
  12   N3       16.0445   -4.8329   29.0877 N.pl3 1 <0> -0.8501
  13   O1       18.7676   -2.3524   26.1510  O.3 1 <0> -1.0332
  14   O2       20.3972   -0.3812   26.2318  O.3 1 <0> -1.0332
  15   O3       14.5324   -0.7534   30.5665  O.2 1 <0> -0.5698
  16   O4       18.9314   -0.7527   24.1606  O.2 1 <0> -1.0332
  17   O5       15.7571    0.9791   27.0595  O.3 1 <0> -0.5601
  18   O6       16.2008    3.6299   28.5252  O.3 1 <0> -0.6802
  19   O7       17.9091   -0.0135   26.3390  O.3 1 <0> -0.5513
  20   P1       19.0969   -0.9440   25.6653  P.3 1 <0>  1.3711
  21   H1       17.1790   -3.4146   27.0897    H 1 <0>  0.1500
  22   H2       16.9752   -0.9456   26.9071    H 1 <0>  0.1500
  23   H3       17.8066    0.7951   29.2169    H 1 <0>  0.0000
  24   H4       16.6284    1.7654   30.1017    H 1 <0>  0.0000
  25   H5       18.1160    2.9559   28.2135    H 1 <0>  0.0000
  26   H6       16.2750    2.7629   26.1711    H 1 <0>  0.0000
  27   H7       14.7736    1.0101   28.8876    H 1 <0>  0.0000
  28   H8       18.8490    1.8078   26.4511    H 1 <0>  0.0000
  29   H9       17.8303    1.5497   25.0110    H 1 <0>  0.0000
  30  H10       16.5619   -5.3299   28.4035    H 1 <0>  0.3999
  31  H11       15.5914   -5.2616   29.8582    H 1 <0>  0.3999
  32  H12       16.4313    4.4272   28.0427    H 1 <0>  0.3999
@<TRIPOS>BOND
    1     1     2  1
    2     1     3  1
    3     2    11  1
    4     3    10  1
    5     3    12  1
    6     4    10  1
    7     4    11  1
    8     4    15  1
    9     5     6  1
   10     5     8  1
   11     6     7  1
   12     6    18  1
   13     7     9  1
   14     7    17  1
   15     8    11  1
   16     8    17  1
   17     9    19  1
   18    13    20  1
   19    14    20  1
   20    16    20  1
   21    19    20  1
   22     1    21  1
   23     2    22  1
   24     5    23  1
   25     5    24  1
   26     6    25  1
   27     7    26  1
   28     8    27  1
   29     9    28  1
   30     9    29  1
   31    12    30  1
   32    12    31  1
   33    18    32  1

@<TRIPOS>MOLECULE
MOL
   32   33    0    0    0
SMALL
USER_CHARGES


@<TRIPOS>ATOM
   1   C1       16.6752   -2.8071   27.8721  C.2 1 <0> -0.1356
   2   C2       16.5481   -1.4859   27.7669  C.2 1 <0> -0.0410
   3   C3       16.0109   -3.4431   29.0396  C.2 1 <0>  0.4856
   4   C4       15.2191   -1.3669   29.7857  C.2 1 <0>  0.8408
   5   C5       16.9265    1.4395   29.1076  C.3 1 <0>  0.0000
   6   C6       17.1073    2.6045   28.1620  C.3 1 <0>  0.2800
   7   C7       16.7283    2.0138   26.8111  C.3 1 <0>  0.2800
   8   C8       15.7589    0.6902   28.4867  C.3 1 <0>  0.5801
   9   C9       17.9106    1.3823   26.0876  C.3 1 <0>  0.2800
  10   N1       15.3393   -2.7402   29.9135  N.2 1 <0> -0.6611
  11   N2       15.8398   -0.7275   28.6845 N.am 1 <0> -0.4690
  12   N3       16.1179   -4.8068   29.1849 N.pl3 1 <0> -0.8501
  13   O1       18.7676   -2.3524   26.1510  O.3 1 <0> -1.0332
  14   O2       20.3972   -0.3812   26.2318  O.3 1 <0> -1.0332
  15   O3       14.5826   -0.7202   30.6195  O.2 1 <0> -0.5698
  16   O4       18.9314   -0.7527   24.1606  O.2 1 <0> -1.0332
  17   O5       15.7675    0.9746   27.0805  O.3 1 <0> -0.5601
  18   O6       16.1996    3.6486   28.5070  O.3 1 <0> -0.6802
  19   O7       17.9091   -0.0135   26.3390  O.3 1 <0> -0.5513
  20   P1       19.0969   -0.9440   25.6653  P.3 1 <0>  1.3711
  21   H1       17.2262   -3.4065   27.1598    H 1 <0>  0.1500
  22   H2       17.0006   -0.9419   26.9453    H 1 <0>  0.1500
  23   H3       17.8340    0.8368   29.2253    H 1 <0>  0.0000
  24   H4       16.6541    1.8093   30.1054    H 1 <0>  0.0000
  25   H5       18.1182    2.9863   28.1904    H 1 <0>  0.0000
  26   H6       16.2642    2.7504   26.1643    H 1 <0>  0.0000
  27   H7       14.7970    1.0224   28.9152    H 1 <0>  0.0000
  28   H8       18.8490    1.8078   26.4511    H 1 <0>  0.0000
  29   H9       17.8303    1.5497   25.0110    H 1 <0>  0.0000
  30  H10       16.6346   -5.3088   28.5038    H 1 <0>  0.3999
  31  H11       15.6740   -5.2287   29.9645    H 1 <0>  0.3999
  32  H12       16.4200    4.4412   28.0121    H 1 <0>  0.3999
@<TRIPOS>BOND
    1     1     2  1
    2     1     3  1
    3     2    11  1
    4     3    10  1
    5     3    12  1
    6     4    10  1
    7     4    11  1
    8     4    15  1
    9     5     6  1
   10     5     8  1
   11     6     7  1
   12     6    18  1
   13     7     9  1
   14     7    17  1
   15     8    11  1
   16     8    17  1
   17     9    19  1
   18    13    20  1
   19    14    20  1
   20    16    20  1
   21    19    20  1
   22     1    21  1
   23     2    22  1
   24     5    23  1
   25     5    24  1
   26     6    25  1
   27     7    26  1
   28     8    27  1
   29     9    28  1
   30     9    29  1
   31    12    30  1
   32    12    31  1
   33    18    32  1

@<TRIPOS>MOLECULE
MOL
   32   33    0    0    0
SMALL
USER_CHARGES


@<TRIPOS>ATOM
   1   C1       16.7230   -2.7925   27.9375  C.2 1 <0> -0.1356
   2   C2       16.5841   -1.4739   27.8154  C.2 1 <0> -0.0410
   3   C3       16.0724   -3.4181   29.1183  C.2 1 <0>  0.4856
   4   C4       15.2687   -1.3386   29.8421  C.2 1 <0>  0.8408
   5   C5       16.9477    1.4724   29.1137  C.3 1 <0>  0.0000
   6   C6       17.1121    2.6259   28.1511  C.3 1 <0>  0.2800
   7   C7       16.7283    2.0138   26.8111  C.3 1 <0>  0.2800
   8   C8       15.7821    0.7051   28.5115  C.3 1 <0>  0.5801
   9   C9       17.9106    1.3823   26.0876  C.3 1 <0>  0.2800
  10   N1       15.4013   -2.7089   29.9875  N.2 1 <0> -0.6611
  11   N2       15.8761   -0.7091   28.7278 N.am 1 <0> -0.4690
  12   N3       16.1919   -4.7787   29.2813 N.pl3 1 <0> -0.8501
  13   O1       18.7676   -2.3524   26.1510  O.3 1 <0> -1.0332
  14   O2       20.3972   -0.3812   26.2318  O.3 1 <0> -1.0332
  15   O3       14.6329   -0.6858   30.6716  O.2 1 <0> -0.5698
  16   O4       18.9314   -0.7527   24.1606  O.2 1 <0> -1.0332
  17   O5       15.7782    0.9705   27.1016  O.3 1 <0> -0.5601
  18   O6       16.1982    3.6671   28.4886  O.3 1 <0> -0.6802
  19   O7       17.9091   -0.0135   26.3390  O.3 1 <0> -0.5513
  20   P1       19.0969   -0.9440   25.6653  P.3 1 <0>  1.3711
  21   H1       17.2739   -3.3969   27.2294    H 1 <0>  0.1500
  22   H2       17.0262   -0.9374   26.9832    H 1 <0>  0.1500
  23   H3       17.8611    0.8788   29.2328    H 1 <0>  0.0000
  24   H4       16.6794    1.8535   30.1083    H 1 <0>  0.0000
  25   H5       18.1199    3.0164   28.1670    H 1 <0>  0.0000
  26   H6       16.2534    2.7377   26.1578    H 1 <0>  0.0000
  27   H7       14.8205    1.0351   28.9424    H 1 <0>  0.0000
  28   H8       18.8490    1.8078   26.4511    H 1 <0>  0.0000
  29   H9       17.8303    1.5497   25.0110    H 1 <0>  0.0000
  30  H10       16.7078   -5.2856   28.6032    H 1 <0>  0.3999
  31  H11       15.7571   -5.1937   30.0697    H 1 <0>  0.3999
  32  H12       16.4084    4.4546   27.9814    H 1 <0>  0.3999
@<TRIPOS>BOND
    1     1     2  1
    2     1     3  1
    3     2    11  1
    4     3    10  1
    5     3    12  1
    6     4    10  1
    7     4    11  1
    8     4    15  1
    9     5     6  1
   10     5     8  1
   11     6     7  1
   12     6    18  1
   13     7     9  1
   14     7    17  1
   15     8    11  1
   16     8    17  1
   17     9    19  1
   18    13    20  1
   19    14    20  1
   20    16    20  1
   21    19    20  1
   22     1    21  1
   23     2    22  1
   24     5    23  1
   25     5    24  1
   26     6    25  1
   27     7    26  1
   28     8    27  1
   29     9    28  1
   30     9    29  1
   31    12    30  1
   32    12    31  1
   33    18    32  1

@<TRIPOS>MOLECULE
MOL
   32   33    0    0    0
SMALL
USER_CHARGES


@<TRIPOS>ATOM
   1   C1       16.7712   -2.7767   28.0024  C.2 1 <0> -0.1356
   2   C2       16.6204   -1.4611   27.8635  C.2 1 <0> -0.0410
   3   C3       16.1343   -3.3915   29.1962  C.2 1 <0>  0.4856
   4   C4       15.3185   -1.3090   29.8977  C.2 1 <0>  0.8408
   5   C5       16.9688    1.5056   29.1191  C.3 1 <0>  0.0000
   6   C6       17.1166    2.6471   28.1399  C.3 1 <0>  0.2800
   7   C7       16.7283    2.0138   26.8111  C.3 1 <0>  0.2800
   8   C8       15.8052    0.7206   28.5359  C.3 1 <0>  0.5801
   9   C9       17.9106    1.3823   26.0876  C.3 1 <0>  0.2800
  10   N1       15.4636   -2.6761   30.0606  N.2 1 <0> -0.6611
  11   N2       15.9127   -0.6897   28.7706 N.am 1 <0> -0.4690
  12   N3       16.2663   -4.7487   29.3767 N.pl3 1 <0> -0.8501
  13   O1       18.7676   -2.3524   26.1510  O.3 1 <0> -1.0332
  14   O2       20.3972   -0.3812   26.2318  O.3 1 <0> -1.0332
  15   O3       14.6832   -0.6503   30.7229  O.2 1 <0> -0.5698
  16   O4       18.9314   -0.7527   24.1606  O.2 1 <0> -1.0332
  17   O5       15.7890    0.9667   27.1226  O.3 1 <0> -0.5601
  18   O6       16.1965    3.6853   28.4699  O.3 1 <0> -0.6802
  19   O7       17.9091   -0.0135   26.3390  O.3 1 <0> -0.5513
  20   P1       19.0969   -0.9440   25.6653  P.3 1 <0>  1.3711
  21   H1       17.3220   -3.3861   27.2985    H 1 <0>  0.1500
  22   H2       17.0520   -0.9323   27.0209    H 1 <0>  0.1500
  23   H3       17.8879    0.9212   29.2396    H 1 <0>  0.0000
  24   H4       16.7045    1.8978   30.1105    H 1 <0>  0.0000
  25   H5       18.1212    3.0461   28.1431    H 1 <0>  0.0000
  26   H6       16.2427    2.7248   26.1516    H 1 <0>  0.0000
  27   H7       14.8441    1.0485   28.9693    H 1 <0>  0.0000
  28   H8       18.8490    1.8078   26.4511    H 1 <0>  0.0000
  29   H9       17.8303    1.5497   25.0110    H 1 <0>  0.0000
  30  H10       16.7815   -5.2606   28.7018    H 1 <0>  0.3999
  31  H11       15.8407   -5.1565   30.1738    H 1 <0>  0.3999
  32  H12       16.3965    4.4676   27.9506    H 1 <0>  0.3999
@<TRIPOS>BOND
    1     1     2  1
    2     1     3  1
    3     2    11  1
    4     3    10  1
    5     3    12  1
    6     4    10  1
    7     4    11  1
    8     4    15  1
    9     5     6  1
   10     5     8  1
   11     6     7  1
   12     6    18  1
   13     7     9  1
   14     7    17  1
   15     8    11  1
   16     8    17  1
   17     9    19  1
   18    13    20  1
   19    14    20  1
   20    16    20  1
   21    19    20  1
   22     1    21  1
   23     2    22  1
   24     5    23  1
   25     5    24  1
   26     6    25  1
   27     7    26  1
   28     8    27  1
   29     9    28  1
   30     9    29  1
   31    12    30  1
   32    12    31  1
   33    18    32  1

@<TRIPOS>MOLECULE
MOL
   32   33    0    0    0
SMALL
USER_CHARGES


@<TRIPOS>ATOM
   1   C1       16.8197   -2.7595   28.0667  C.2 1 <0> -0.1356
   2   C2       16.6570   -1.4472   27.9111  C.2 1 <0> -0.0410
   3   C3       16.1966   -3.3633   29.2733  C.2 1 <0>  0.4856
   4   C4       15.3685   -1.2783   29.9525  C.2 1 <0>  0.8408
   5   C5       16.9896    1.5390   29.1240  C.3 1 <0>  0.0000
   6   C6       17.1208    2.6683   28.1284  C.3 1 <0>  0.2800
   7   C7       16.7283    2.0138   26.8111  C.3 1 <0>  0.2800
   8   C8       15.8285    0.7365   28.5599  C.3 1 <0>  0.5801
   9   C9       17.9106    1.3823   26.0876  C.3 1 <0>  0.2800
  10   N1       15.5261   -2.6418   30.1328  N.2 1 <0> -0.6611
  11   N2       15.9493   -0.6695   28.8128 N.am 1 <0> -0.4690
  12   N3       16.3411   -4.7169   29.4712 N.pl3 1 <0> -0.8501
  13   O1       18.7676   -2.3524   26.1510  O.3 1 <0> -1.0332
  14   O2       20.3972   -0.3812   26.2318  O.3 1 <0> -1.0332
  15   O3       14.7337   -0.6137   30.7734  O.2 1 <0> -0.5698
  16   O4       18.9314   -0.7527   24.1606  O.2 1 <0> -1.0332
  17   O5       15.8001    0.9633   27.1435  O.3 1 <0> -0.5601
  18   O6       16.1945    3.7032   28.4510  O.3 1 <0> -0.6802
  19   O7       17.9091   -0.0135   26.3390  O.3 1 <0> -0.5513
  20   P1       19.0969   -0.9440   25.6653  P.3 1 <0>  1.3711
  21   H1       17.3705   -3.3739   27.3671    H 1 <0>  0.1500
  22   H2       17.0780   -0.9264   27.0584    H 1 <0>  0.1500
  23   H3       17.9144    0.9638   29.2456    H 1 <0>  0.0000
  24   H4       16.7291    1.9425   30.1118    H 1 <0>  0.0000
  25   H5       18.1220    3.0755   28.1189    H 1 <0>  0.0000
  26   H6       16.2321    2.7118   26.1456    H 1 <0>  0.0000
  27   H7       14.8678    1.0624   28.9958    H 1 <0>  0.0000
  28   H8       18.8490    1.8078   26.4511    H 1 <0>  0.0000
  29   H9       17.8303    1.5497   25.0110    H 1 <0>  0.0000
  30  H10       16.8558   -5.2335   28.7995    H 1 <0>  0.3999
  31  H11       15.9247   -5.1173   30.2768    H 1 <0>  0.3999
  32  H12       16.3842    4.4800   27.9197    H 1 <0>  0.3999
@<TRIPOS>BOND
    1     1     2  1
    2     1     3  1
    3     2    11  1
    4     3    10  1
    5     3    12  1
    6     4    10  1
    7     4    11  1
    8     4    15  1
    9     5     6  1
   10     5     8  1
   11     6     7  1
   12     6    18  1
   13     7     9  1
   14     7    17  1
   15     8    11  1
   16     8    17  1
   17     9    19  1
   18    13    20  1
   19    14    20  1
   20    16    20  1
   21    19    20  1
   22     1    21  1
   23     2    22  1
   24     5    23  1
   25     5    24  1
   26     6    25  1
   27     7    26  1
   28     8    27  1
   29     9    28  1
   30     9    29  1
   31    12    30  1
   32    12    31  1
   33    18    32  1

@<TRIPOS>MOLECULE
MOL
   32   33    0    0    0
SMALL
USER_CHARGES


@<TRIPOS>ATOM
   1   C1       16.8685   -2.7411   28.1304  C.2 1 <0> -0.1356
   2   C2       16.6937   -1.4324   27.9583  C.2 1 <0> -0.0410
   3   C3       16.2591   -3.3336   29.3496  C.2 1 <0>  0.4856
   4   C4       15.4186   -1.2464   30.0065  C.2 1 <0>  0.8408
   5   C5       17.0101    1.5726   29.1282  C.3 1 <0>  0.0000
   6   C6       17.1248    2.6893   28.1165  C.3 1 <0>  0.2800
   7   C7       16.7283    2.0138   26.8111  C.3 1 <0>  0.2800
   8   C8       15.8517    0.7530   28.5835  C.3 1 <0>  0.5801
   9   C9       17.9106    1.3823   26.0876  C.3 1 <0>  0.2800
  10   N1       15.5888   -2.6060   30.2041  N.2 1 <0> -0.6611
  11   N2       15.9861   -0.6484   28.8545 N.am 1 <0> -0.4690
  12   N3       16.4164   -4.6831   29.5647 N.pl3 1 <0> -0.8501
  13   O1       18.7676   -2.3524   26.1510  O.3 1 <0> -1.0332
  14   O2       20.3972   -0.3812   26.2318  O.3 1 <0> -1.0332
  15   O3       14.7841   -0.5760   30.8230  O.2 1 <0> -0.5698
  16   O4       18.9314   -0.7527   24.1606  O.2 1 <0> -1.0332
  17   O5       15.8113    0.9603   27.1645  O.3 1 <0> -0.5601
  18   O6       16.1922    3.7209   28.4319  O.3 1 <0> -0.6802
  19   O7       17.9091   -0.0135   26.3390  O.3 1 <0> -0.5513
  20   P1       19.0969   -0.9440   25.6653  P.3 1 <0>  1.3711
  21   H1       17.4193   -3.3604   27.4351    H 1 <0>  0.1500
  22   H2       17.1043   -0.9198   27.0955    H 1 <0>  0.1500
  23   H3       17.9405    1.0068   29.2509    H 1 <0>  0.0000
  24   H4       16.7534    1.9873   30.1124    H 1 <0>  0.0000
  25   H5       18.1225    3.1047   28.0942    H 1 <0>  0.0000
  26   H6       16.2215    2.6986   26.1398    H 1 <0>  0.0000
  27   H7       14.8915    1.0768   29.0220    H 1 <0>  0.0000
  28   H8       18.8490    1.8078   26.4511    H 1 <0>  0.0000
  29   H9       17.8303    1.5497   25.0110    H 1 <0>  0.0000
  30  H10       16.9305   -5.2046   28.8963    H 1 <0>  0.3999
  31  H11       16.0091   -5.0759   30.3786    H 1 <0>  0.3999
  32  H12       16.3716    4.4919   27.8888    H 1 <0>  0.3999
@<TRIPOS>BOND
    1     1     2  1
    2     1     3  1
    3     2    11  1
    4     3    10  1
    5     3    12  1
    6     4    10  1
    7     4    11  1
    8     4    15  1
    9     5     6  1
   10     5     8  1
   11     6     7  1
   12     6    18  1
   13     7     9  1
   14     7    17  1
   15     8    11  1
   16     8    17  1
   17     9    19  1
   18    13    20  1
   19    14    20  1
   20    16    20  1
   21    19    20  1
   22     1    21  1
   23     2    22  1
   24     5    23  1
   25     5    24  1
   26     6    25  1
   27     7    26  1
   28     8    27  1
   29     9    28  1
   30     9    29  1
   31    12    30  1
   32    12    31  1
   33    18    32  1

@<TRIPOS>MOLECULE
MOL
   32   33    0    0    0
SMALL
USER_CHARGES


@<TRIPOS>ATOM
   1   C1       16.9176   -2.7215   28.1935  C.2 1 <0> -0.1356
   2   C2       16.7307   -1.4167   28.0050  C.2 1 <0> -0.0410
   3   C3       16.3219   -3.3023   29.4250  C.2 1 <0>  0.4856
   4   C4       15.4688   -1.2134   30.0598  C.2 1 <0>  0.8408
   5   C5       17.0304    1.6064   29.1319  C.3 1 <0>  0.0000
   6   C6       17.1285    2.7102   28.1043  C.3 1 <0>  0.2800
   7   C7       16.7283    2.0138   26.8111  C.3 1 <0>  0.2800
   8   C8       15.8750    0.7700   28.6067  C.3 1 <0>  0.5801
   9   C9       17.9106    1.3823   26.0876  C.3 1 <0>  0.2800
  10   N1       15.6518   -2.5688   30.2745  N.2 1 <0> -0.6611
  11   N2       16.0230   -0.6264   28.8957 N.am 1 <0> -0.4690
  12   N3       16.4920   -4.6474   29.6571 N.pl3 1 <0> -0.8501
  13   O1       18.7676   -2.3524   26.1510  O.3 1 <0> -1.0332
  14   O2       20.3972   -0.3812   26.2318  O.3 1 <0> -1.0332
  15   O3       14.8346   -0.5372   30.8717  O.2 1 <0> -0.5698
  16   O4       18.9314   -0.7527   24.1606  O.2 1 <0> -1.0332
  17   O5       15.8227    0.9577   27.1853  O.3 1 <0> -0.5601
  18   O6       16.1896    3.7383   28.4125  O.3 1 <0> -0.6802
  19   O7       17.9091   -0.0135   26.3390  O.3 1 <0> -0.5513
  20   P1       19.0969   -0.9440   25.6653  P.3 1 <0>  1.3711
  21   H1       17.4686   -3.3455   27.5027    H 1 <0>  0.1500
  22   H2       17.1308   -0.9124   27.1324    H 1 <0>  0.1500
  23   H3       17.9664    1.0500   29.2554    H 1 <0>  0.0000
  24   H4       16.7773    2.0323   30.1122    H 1 <0>  0.0000
  25   H5       18.1225    3.1334   28.0691    H 1 <0>  0.0000
  26   H6       16.2110    2.6852   26.1344    H 1 <0>  0.0000
  27   H7       14.9153    1.0918   29.0478    H 1 <0>  0.0000
  28   H8       18.8490    1.8078   26.4511    H 1 <0>  0.0000
  29   H9       17.8303    1.5497   25.0110    H 1 <0>  0.0000
  30  H10       17.0056   -5.1737   28.9922    H 1 <0>  0.3999
  31  H11       16.0939   -5.0325   30.4793    H 1 <0>  0.3999
  32  H12       16.3587    4.5033   27.8577    H 1 <0>  0.3999
@<TRIPOS>BOND
    1     1     2  1
    2     1     3  1
    3     2    11  1
    4     3    10  1
    5     3    12  1
    6     4    10  1
    7     4    11  1
    8     4    15  1
    9     5     6  1
   10     5     8  1
   11     6     7  1
   12     6    18  1
   13     7     9  1
   14     7    17  1
   15     8    11  1
   16     8    17  1
   17     9    19  1
   18    13    20  1
   19    14    20  1
   20    16    20  1
   21    19    20  1
   22     1    21  1
   23     2    22  1
   24     5    23  1
   25     5    24  1
   26     6    25  1
   27     7    26  1
   28     8    27  1
   29     9    28  1
   30     9    29  1
   31    12    30  1
   32    12    31  1
   33    18    32  1

@<TRIPOS>MOLECULE
MOL
   32   33    0    0    0
SMALL
USER_CHARGES


@<TRIPOS>ATOM
   1   C1       16.9670   -2.7006   28.2559  C.2 1 <0> -0.1356
   2   C2       16.7679   -1.4000   28.0512  C.2 1 <0> -0.0410
   3   C3       16.3851   -3.2695   29.4995  C.2 1 <0>  0.4856
   4   C4       15.5191   -1.1793   30.1122  C.2 1 <0>  0.8408
   5   C5       17.0504    1.6405   29.1349  C.3 1 <0>  0.0000
   6   C6       17.1319    2.7310   28.0918  C.3 1 <0>  0.2800
   7   C7       16.7283    2.0138   26.8111  C.3 1 <0>  0.2800
   8   C8       15.8983    0.7875   28.6295  C.3 1 <0>  0.5801
   9   C9       17.9106    1.3823   26.0876  C.3 1 <0>  0.2800
  10   N1       15.7149   -2.5301   30.3439  N.2 1 <0> -0.6611
  11   N2       16.0601   -0.6036   28.9363 N.am 1 <0> -0.4690
  12   N3       16.5680   -4.6099   29.7486 N.pl3 1 <0> -0.8501
  13   O1       18.7676   -2.3524   26.1510  O.3 1 <0> -1.0332
  14   O2       20.3972   -0.3812   26.2318  O.3 1 <0> -1.0332
  15   O3       14.8852   -0.4974   30.9195  O.2 1 <0> -0.5698
  16   O4       18.9314   -0.7527   24.1606  O.2 1 <0> -1.0332
  17   O5       15.8342    0.9554   27.2062  O.3 1 <0> -0.5601
  18   O6       16.1868    3.7553   28.3929  O.3 1 <0> -0.6802
  19   O7       17.9091   -0.0135   26.3390  O.3 1 <0> -0.5513
  20   P1       19.0969   -0.9440   25.6653  P.3 1 <0>  1.3711
  21   H1       17.5182   -3.3294   27.5696    H 1 <0>  0.1500
  22   H2       17.1575   -0.9044   27.1690    H 1 <0>  0.1500
  23   H3       17.9919    1.0936   29.2591    H 1 <0>  0.0000
  24   H4       16.8009    2.0775   30.1112    H 1 <0>  0.0000
  25   H5       18.1221    3.1619   28.0437    H 1 <0>  0.0000
  26   H6       16.2006    2.6717   26.1291    H 1 <0>  0.0000
  27   H7       14.9391    1.1074   29.0732    H 1 <0>  0.0000
  28   H8       18.8490    1.8078   26.4511    H 1 <0>  0.0000
  29   H9       17.8303    1.5497   25.0110    H 1 <0>  0.0000
  30  H10       17.0812   -5.1409   29.0871    H 1 <0>  0.3999
  31  H11       16.1790   -4.9871   30.5787    H 1 <0>  0.3999
  32  H12       16.3455    4.5141   27.8266    H 1 <0>  0.3999
@<TRIPOS>BOND
    1     1     2  1
    2     1     3  1
    3     2    11  1
    4     3    10  1
    5     3    12  1
    6     4    10  1
    7     4    11  1
    8     4    15  1
    9     5     6  1
   10     5     8  1
   11     6     7  1
   12     6    18  1
   13     7     9  1
   14     7    17  1
   15     8    11  1
   16     8    17  1
   17     9    19  1
   18    13    20  1
   19    14    20  1
   20    16    20  1
   21    19    20  1
   22     1    21  1
   23     2    22  1
   24     5    23  1
   25     5    24  1
   26     6    25  1
   27     7    26  1
   28     8    27  1
   29     9    28  1
   30     9    29  1
   31    12    30  1
   32    12    31  1
   33    18    32  1

@<TRIPOS>MOLECULE
MOL
   32   33    0    0    0
SMALL
USER_CHARGES


@<TRIPOS>ATOM
   1   C1       17.0167   -2.6784   28.3178  C.2 1 <0> -0.1356
   2   C2       16.8052   -1.3825   28.0969  C.2 1 <0> -0.0410
   3   C3       16.4485   -3.2352   29.5731  C.2 1 <0>  0.4856
   4   C4       15.5695   -1.1441   30.1638  C.2 1 <0>  0.8408
   5   C5       17.0702    1.6747   29.1373  C.3 1 <0>  0.0000
   6   C6       17.1351    2.7516   28.0790  C.3 1 <0>  0.2800
   7   C7       16.7283    2.0138   26.8111  C.3 1 <0>  0.2800
   8   C8       15.9217    0.8055   28.6519  C.3 1 <0>  0.5801
   9   C9       17.9106    1.3823   26.0876  C.3 1 <0>  0.2800
  10   N1       15.7782   -2.4899   30.4123  N.2 1 <0> -0.6611
  11   N2       16.0972   -0.5799   28.9763 N.am 1 <0> -0.4690
  12   N3       16.6443   -4.5705   29.8389 N.pl3 1 <0> -0.8501
  13   O1       18.7676   -2.3524   26.1510  O.3 1 <0> -1.0332
  14   O2       20.3972   -0.3812   26.2318  O.3 1 <0> -1.0332
  15   O3       14.9357   -0.4565   30.9664  O.2 1 <0> -0.5698
  16   O4       18.9314   -0.7527   24.1606  O.2 1 <0> -1.0332
  17   O5       15.8459    0.9536   27.2270  O.3 1 <0> -0.5601
  18   O6       16.1837    3.7721   28.3731  O.3 1 <0> -0.6802
  19   O7       17.9091   -0.0135   26.3390  O.3 1 <0> -0.5513
  20   P1       19.0969   -0.9440   25.6653  P.3 1 <0>  1.3711
  21   H1       17.5682   -3.3119   27.6360    H 1 <0>  0.1500
  22   H2       17.1844   -0.8956   27.2053    H 1 <0>  0.1500
  23   H3       18.0170    1.1373   29.2620    H 1 <0>  0.0000
  24   H4       16.8240    2.1229   30.1094    H 1 <0>  0.0000
  25   H5       18.1213    3.1899   28.0179    H 1 <0>  0.0000
  26   H6       16.1903    2.6580   26.1242    H 1 <0>  0.0000
  27   H7       14.9631    1.1234   29.0982    H 1 <0>  0.0000
  28   H8       18.8490    1.8078   26.4511    H 1 <0>  0.0000
  29   H9       17.8303    1.5497   25.0110    H 1 <0>  0.0000
  30  H10       17.1572   -5.1062   29.1809    H 1 <0>  0.3999
  31  H11       16.2644   -4.9396   30.6769    H 1 <0>  0.3999
  32  H12       16.3320    4.5245   27.7955    H 1 <0>  0.3999
@<TRIPOS>BOND
    1     1     2  1
    2     1     3  1
    3     2    11  1
    4     3    10  1
    5     3    12  1
    6     4    10  1
    7     4    11  1
    8     4    15  1
    9     5     6  1
   10     5     8  1
   11     6     7  1
   12     6    18  1
   13     7     9  1
   14     7    17  1
   15     8    11  1
   16     8    17  1
   17     9    19  1
   18    13    20  1
   19    14    20  1
   20    16    20  1
   21    19    20  1
   22     1    21  1
   23     2    22  1
   24     5    23  1
   25     5    24  1
   26     6    25  1
   27     7    26  1
   28     8    27  1
   29     9    28  1
   30     9    29  1
   31    12    30  1
   32    12    31  1
   33    18    32  1

@<TRIPOS>MOLECULE
MOL
   32   33    0    0    0
SMALL
USER_CHARGES


@<TRIPOS>ATOM
   1   C1       17.0666   -2.6550   28.3789  C.2 1 <0> -0.1356
   2   C2       16.8428   -1.3639   28.1421  C.2 1 <0> -0.0410
   3   C3       16.5121   -3.1993   29.6458  C.2 1 <0>  0.4856
   4   C4       15.6200   -1.1077   30.2145  C.2 1 <0>  0.8408
   5   C5       17.0897    1.7091   29.1391  C.3 1 <0>  0.0000
   6   C6       17.1380    2.7721   28.0660  C.3 1 <0>  0.2800
   7   C7       16.7283    2.0138   26.8111  C.3 1 <0>  0.2800
   8   C8       15.9450    0.8240   28.6739  C.3 1 <0>  0.5801
   9   C9       17.9106    1.3823   26.0876  C.3 1 <0>  0.2800
  10   N1       15.8417   -2.4482   30.4796  N.2 1 <0> -0.6611
  11   N2       16.1344   -0.5554   29.0157 N.am 1 <0> -0.4690
  12   N3       16.7210   -4.5293   29.9282 N.pl3 1 <0> -0.8501
  13   O1       18.7676   -2.3524   26.1510  O.3 1 <0> -1.0332
  14   O2       20.3972   -0.3812   26.2318  O.3 1 <0> -1.0332
  15   O3       14.9863   -0.4145   31.0124  O.2 1 <0> -0.5698
  16   O4       18.9314   -0.7527   24.1606  O.2 1 <0> -1.0332
  17   O5       15.8578    0.9521   27.2477  O.3 1 <0> -0.5601
  18   O6       16.1803    3.7886   28.3532  O.3 1 <0> -0.6802
  19   O7       17.9091   -0.0135   26.3390  O.3 1 <0> -0.5513
  20   P1       19.0969   -0.9440   25.6653  P.3 1 <0>  1.3711
  21   H1       17.6184   -3.2931   27.7018    H 1 <0>  0.1500
  22   H2       17.2114   -0.8861   27.2412    H 1 <0>  0.1500
  23   H3       18.0419    1.1813   29.2642    H 1 <0>  0.0000
  24   H4       16.8468    2.1685   30.1068    H 1 <0>  0.0000
  25   H5       18.1201    3.2176   27.9917    H 1 <0>  0.0000
  26   H6       16.1800    2.6441   26.1195    H 1 <0>  0.0000
  27   H7       14.9870    1.1401   29.1229    H 1 <0>  0.0000
  28   H8       18.8490    1.8078   26.4511    H 1 <0>  0.0000
  29   H9       17.8303    1.5497   25.0110    H 1 <0>  0.0000
  30  H10       17.2335   -5.0696   29.2738    H 1 <0>  0.3999
  31  H11       16.3502   -4.8900   30.7738    H 1 <0>  0.3999
  32  H12       16.3181    4.5342   27.7644    H 1 <0>  0.3999
@<TRIPOS>BOND
    1     1     2  1
    2     1     3  1
    3     2    11  1
    4     3    10  1
    5     3    12  1
    6     4    10  1
    7     4    11  1
    8     4    15  1
    9     5     6  1
   10     5     8  1
   11     6     7  1
   12     6    18  1
   13     7     9  1
   14     7    17  1
   15     8    11  1
   16     8    17  1
   17     9    19  1
   18    13    20  1
   19    14    20  1
   20    16    20  1
   21    19    20  1
   22     1    21  1
   23     2    22  1
   24     5    23  1
   25     5    24  1
   26     6    25  1
   27     7    26  1
   28     8    27  1
   29     9    28  1
   30     9    29  1
   31    12    30  1
   32    12    31  1
   33    18    32  1

@<TRIPOS>MOLECULE
MOL
   32   33    0    0    0
SMALL
USER_CHARGES


@<TRIPOS>ATOM
   1   C1       17.1168   -2.6303   28.4394  C.2 1 <0> -0.1356
   2   C2       16.8805   -1.3445   28.1868  C.2 1 <0> -0.0410
   3   C3       16.5759   -3.1620   29.7175  C.2 1 <0>  0.4856
   4   C4       15.6705   -1.0702   30.2644  C.2 1 <0>  0.8408
   5   C5       17.1090    1.7438   29.1403  C.3 1 <0>  0.0000
   6   C6       17.1407    2.7924   28.0526  C.3 1 <0>  0.2800
   7   C7       16.7283    2.0138   26.8111  C.3 1 <0>  0.2800
   8   C8       15.9683    0.8430   28.6955  C.3 1 <0>  0.5801
   9   C9       17.9106    1.3823   26.0876  C.3 1 <0>  0.2800
  10   N1       15.9053   -2.4052   30.5460  N.2 1 <0> -0.6611
  11   N2       16.1717   -0.5301   29.0545 N.am 1 <0> -0.4690
  12   N3       16.7979   -4.4862   30.0163 N.pl3 1 <0> -0.8501
  13   O1       18.7676   -2.3524   26.1510  O.3 1 <0> -1.0332
  14   O2       20.3972   -0.3812   26.2318  O.3 1 <0> -1.0332
  15   O3       15.0368   -0.3716   31.0574  O.2 1 <0> -0.5698
  16   O4       18.9314   -0.7527   24.1606  O.2 1 <0> -1.0332
  17   O5       15.8698    0.9510   27.2683  O.3 1 <0> -0.5601
  18   O6       16.1766    3.8048   28.3330  O.3 1 <0> -0.6802
  19   O7       17.9091   -0.0135   26.3390  O.3 1 <0> -0.5513
  20   P1       19.0969   -0.9440   25.6653  P.3 1 <0>  1.3711
  21   H1       17.6690   -3.2730   27.7669    H 1 <0>  0.1500
  22   H2       17.2387   -0.8759   27.2768    H 1 <0>  0.1500
  23   H3       18.0663    1.2256   29.2656    H 1 <0>  0.0000
  24   H4       16.8692    2.2142   30.1035    H 1 <0>  0.0000
  25   H5       18.1184    3.2450   27.9651    H 1 <0>  0.0000
  26   H6       16.1698    2.6302   26.1150    H 1 <0>  0.0000
  27   H7       15.0110    1.1572   29.1471    H 1 <0>  0.0000
  28   H8       18.8490    1.8078   26.4511    H 1 <0>  0.0000
  29   H9       17.8303    1.5497   25.0110    H 1 <0>  0.0000
  30  H10       17.3103   -5.0311   29.3655    H 1 <0>  0.3999
  31  H11       16.4363   -4.8385   30.8694    H 1 <0>  0.3999
  32  H12       16.3040    4.5435   27.7332    H 1 <0>  0.3999
@<TRIPOS>BOND
    1     1     2  1
    2     1     3  1
    3     2    11  1
    4     3    10  1
    5     3    12  1
    6     4    10  1
    7     4    11  1
    8     4    15  1
    9     5     6  1
   10     5     8  1
   11     6     7  1
   12     6    18  1
   13     7     9  1
   14     7    17  1
   15     8    11  1
   16     8    17  1
   17     9    19  1
   18    13    20  1
   19    14    20  1
   20    16    20  1
   21    19    20  1
   22     1    21  1
   23     2    22  1
   24     5    23  1
   25     5    24  1
   26     6    25  1
   27     7    26  1
   28     8    27  1
   29     9    28  1
   30     9    29  1
   31    12    30  1
   32    12    31  1
   33    18    32  1

@<TRIPOS>MOLECULE
MOL
   32   33    0    0    0
SMALL
USER_CHARGES


@<TRIPOS>ATOM
   1   C1       17.1671   -2.6044   28.4991  C.2 1 <0> -0.1356
   2   C2       16.9184   -1.3241   28.2309  C.2 1 <0> -0.0410
   3   C3       16.6399   -3.1231   29.7882  C.2 1 <0>  0.4856
   4   C4       15.7211   -1.0317   30.3134  C.2 1 <0>  0.8408
   5   C5       17.1279    1.7786   29.1409  C.3 1 <0>  0.0000
   6   C6       17.1431    2.8126   28.0389  C.3 1 <0>  0.2800
   7   C7       16.7283    2.0138   26.8111  C.3 1 <0>  0.2800
   8   C8       15.9917    0.8625   28.7167  C.3 1 <0>  0.5801
   9   C9       17.9106    1.3823   26.0876  C.3 1 <0>  0.2800
  10   N1       15.9690   -2.3607   30.6113  N.2 1 <0> -0.6611
  11   N2       16.2090   -0.5039   29.0927 N.am 1 <0> -0.4690
  12   N3       16.8751   -4.4413   30.1033 N.pl3 1 <0> -0.8501
  13   O1       18.7676   -2.3524   26.1510  O.3 1 <0> -1.0332
  14   O2       20.3972   -0.3812   26.2318  O.3 1 <0> -1.0332
  15   O3       15.0873   -0.3275   31.1015  O.2 1 <0> -0.5698
  16   O4       18.9314   -0.7527   24.1606  O.2 1 <0> -1.0332
  17   O5       15.8820    0.9502   27.2889  O.3 1 <0> -0.5601
  18   O6       16.1726    3.8207   28.3126  O.3 1 <0> -0.6802
  19   O7       17.9091   -0.0135   26.3390  O.3 1 <0> -0.5513
  20   P1       19.0969   -0.9440   25.6653  P.3 1 <0>  1.3711
  21   H1       17.7199   -3.2516   27.8314    H 1 <0>  0.1500
  22   H2       17.2661   -0.8651   27.3121    H 1 <0>  0.1500
  23   H3       18.0905    1.2700   29.2662    H 1 <0>  0.0000
  24   H4       16.8911    2.2600   30.0994    H 1 <0>  0.0000
  25   H5       18.1164    3.2720   27.9382    H 1 <0>  0.0000
  26   H6       16.1597    2.6160   26.1109    H 1 <0>  0.0000
  27   H7       15.0350    1.1749   29.1709    H 1 <0>  0.0000
  28   H8       18.8490    1.8078   26.4511    H 1 <0>  0.0000
  29   H9       17.8303    1.5497   25.0110    H 1 <0>  0.0000
  30  H10       17.3873   -4.9907   29.4562    H 1 <0>  0.3999
  31  H11       16.5225   -4.7849   30.9637    H 1 <0>  0.3999
  32  H12       16.2895    4.5522   27.7020    H 1 <0>  0.3999
@<TRIPOS>BOND
    1     1     2  1
    2     1     3  1
    3     2    11  1
    4     3    10  1
    5     3    12  1
    6     4    10  1
    7     4    11  1
    8     4    15  1
    9     5     6  1
   10     5     8  1
   11     6     7  1
   12     6    18  1
   13     7     9  1
   14     7    17  1
   15     8    11  1
   16     8    17  1
   17     9    19  1
   18    13    20  1
   19    14    20  1
   20    16    20  1
   21    19    20  1
   22     1    21  1
   23     2    22  1
   24     5    23  1
   25     5    24  1
   26     6    25  1
   27     7    26  1
   28     8    27  1
   29     9    28  1
   30     9    29  1
   31    12    30  1
   32    12    31  1
   33    18    32  1

@<TRIPOS>MOLECULE
MOL
   32   33    0    0    0
SMALL
USER_CHARGES


@<TRIPOS>ATOM
   1   C1       17.2177   -2.5773   28.5581  C.2 1 <0> -0.1356
   2   C2       16.9564   -1.3029   28.2745  C.2 1 <0> -0.0410
   3   C3       16.7042   -3.0828   29.8579  C.2 1 <0>  0.4856
   4   C4       15.7717   -0.9920   30.3615  C.2 1 <0>  0.8408
   5   C5       17.1466    1.8135   29.1409  C.3 1 <0>  0.0000
   6   C6       17.1452    2.8326   28.0249  C.3 1 <0>  0.2800
   7   C7       16.7283    2.0138   26.8111  C.3 1 <0>  0.2800
   8   C8       16.0150    0.8824   28.7374  C.3 1 <0>  0.5801
   9   C9       17.9106    1.3823   26.0876  C.3 1 <0>  0.2800
  10   N1       16.0328   -2.3148   30.6755  N.2 1 <0> -0.6611
  11   N2       16.2464   -0.4768   29.1302 N.am 1 <0> -0.4690
  12   N3       16.9526   -4.3945   30.1891 N.pl3 1 <0> -0.8501
  13   O1       18.7676   -2.3524   26.1510  O.3 1 <0> -1.0332
  14   O2       20.3972   -0.3812   26.2318  O.3 1 <0> -1.0332
  15   O3       15.1377   -0.2825   31.1446  O.2 1 <0> -0.5698
  16   O4       18.9314   -0.7527   24.1606  O.2 1 <0> -1.0332
  17   O5       15.8944    0.9499   27.3094  O.3 1 <0> -0.5601
  18   O6       16.1683    3.8363   28.2921  O.3 1 <0> -0.6802
  19   O7       17.9091   -0.0135   26.3390  O.3 1 <0> -0.5513
  20   P1       19.0969   -0.9440   25.6653  P.3 1 <0>  1.3711
  21   H1       17.7711   -3.2289   27.8952    H 1 <0>  0.1500
  22   H2       17.2936   -0.8535   27.3471    H 1 <0>  0.1500
  23   H3       18.1142    1.3147   29.2660    H 1 <0>  0.0000
  24   H4       16.9127    2.3060   30.0944    H 1 <0>  0.0000
  25   H5       18.1139    3.2985   27.9109    H 1 <0>  0.0000
  26   H6       16.1497    2.6018   26.1069    H 1 <0>  0.0000
  27   H7       15.0591    1.1931   29.1943    H 1 <0>  0.0000
  28   H8       18.8490    1.8078   26.4511    H 1 <0>  0.0000
  29   H9       17.8303    1.5497   25.0110    H 1 <0>  0.0000
  30  H10       17.4647   -4.9485   29.5458    H 1 <0>  0.3999
  31  H11       16.6091   -4.7294   31.0566    H 1 <0>  0.3999
  32  H12       16.2748    4.5604   27.6707    H 1 <0>  0.3999
@<TRIPOS>BOND
    1     1     2  1
    2     1     3  1
    3     2    11  1
    4     3    10  1
    5     3    12  1
    6     4    10  1
    7     4    11  1
    8     4    15  1
    9     5     6  1
   10     5     8  1
   11     6     7  1
   12     6    18  1
   13     7     9  1
   14     7    17  1
   15     8    11  1
   16     8    17  1
   17     9    19  1
   18    13    20  1
   19    14    20  1
   20    16    20  1
   21    19    20  1
   22     1    21  1
   23     2    22  1
   24     5    23  1
   25     5    24  1
   26     6    25  1
   27     7    26  1
   28     8    27  1
   29     9    28  1
   30     9    29  1
   31    12    30  1
   32    12    31  1
   33    18    32  1

@<TRIPOS>MOLECULE
MOL
   32   33    0    0    0
SMALL
USER_CHARGES


@<TRIPOS>ATOM
   1   C1       17.2685   -2.5490   28.6164  C.2 1 <0> -0.1356
   2   C2       16.9945   -1.2807   28.3175  C.2 1 <0> -0.0410
   3   C3       16.7685   -3.0410   29.9266  C.2 1 <0>  0.4856
   4   C4       15.8223   -0.9513   30.4087  C.2 1 <0>  0.8408
   5   C5       17.1650    1.8486   29.1403  C.3 1 <0>  0.0000
   6   C6       17.1471    2.8524   28.0107  C.3 1 <0>  0.2800
   7   C7       16.7283    2.0138   26.8111  C.3 1 <0>  0.2800
   8   C8       16.0383    0.9028   28.7576  C.3 1 <0>  0.5801
   9   C9       17.9106    1.3823   26.0876  C.3 1 <0>  0.2800
  10   N1       16.0967   -2.2675   30.7386  N.2 1 <0> -0.6611
  11   N2       16.2839   -0.4490   29.1671 N.am 1 <0> -0.4690
  12   N3       17.0303   -4.3460   30.2736 N.pl3 1 <0> -0.8501
  13   O1       18.7676   -2.3524   26.1510  O.3 1 <0> -1.0332
  14   O2       20.3972   -0.3812   26.2318  O.3 1 <0> -1.0332
  15   O3       15.1881   -0.2365   31.1867  O.2 1 <0> -0.5698
  16   O4       18.9314   -0.7527   24.1606  O.2 1 <0> -1.0332
  17   O5       15.9069    0.9499   27.3298  O.3 1 <0> -0.5601
  18   O6       16.1638    3.8516   28.2714  O.3 1 <0> -0.6802
  19   O7       17.9091   -0.0135   26.3390  O.3 1 <0> -0.5513
  20   P1       19.0969   -0.9440   25.6653  P.3 1 <0>  1.3711
  21   H1       17.8225   -3.2049   27.9583    H 1 <0>  0.1500
  22   H2       17.3214   -0.8412   27.3816    H 1 <0>  0.1500
  23   H3       18.1376    1.3595   29.2651    H 1 <0>  0.0000
  24   H4       16.9338    2.3520   30.0888    H 1 <0>  0.0000
  25   H5       18.1110    3.3247   27.8833    H 1 <0>  0.0000
  26   H6       16.1398    2.5873   26.1033    H 1 <0>  0.0000
  27   H7       15.0831    1.2118   29.2173    H 1 <0>  0.0000
  28   H8       18.8490    1.8078   26.4511    H 1 <0>  0.0000
  29   H9       17.8303    1.5497   25.0110    H 1 <0>  0.0000
  30  H10       17.5423   -4.9044   29.6342    H 1 <0>  0.3999
  31  H11       16.6958   -4.6719   31.1481    H 1 <0>  0.3999
  32  H12       16.2597    4.5680   27.6395    H 1 <0>  0.3999
@<TRIPOS>BOND
    1     1     2  1
    2     1     3  1
    3     2    11  1
    4     3    10  1
    5     3    12  1
    6     4    10  1
    7     4    11  1
    8     4    15  1
    9     5     6  1
   10     5     8  1
   11     6     7  1
   12     6    18  1
   13     7     9  1
   14     7    17  1
   15     8    11  1
   16     8    17  1
   17     9    19  1
   18    13    20  1
   19    14    20  1
   20    16    20  1
   21    19    20  1
   22     1    21  1
   23     2    22  1
   24     5    23  1
   25     5    24  1
   26     6    25  1
   27     7    26  1
   28     8    27  1
   29     9    28  1
   30     9    29  1
   31    12    30  1
   32    12    31  1
   33    18    32  1

@<TRIPOS>MOLECULE
MOL
   32   33    0    0    0
SMALL
USER_CHARGES


@<TRIPOS>ATOM
   1   C1       17.3195   -2.5194   28.6739  C.2 1 <0> -0.1356
   2   C2       17.0328   -1.2577   28.3599  C.2 1 <0> -0.0410
   3   C3       16.8330   -2.9977   29.9943  C.2 1 <0>  0.4856
   4   C4       15.8729   -0.9096   30.4549  C.2 1 <0>  0.8408
   5   C5       17.1830    1.8839   29.1391  C.3 1 <0>  0.0000
   6   C6       17.1487    2.8720   27.9961  C.3 1 <0>  0.2800
   7   C7       16.7283    2.0138   26.8111  C.3 1 <0>  0.2800
   8   C8       16.0616    0.9237   28.7775  C.3 1 <0>  0.5801
   9   C9       17.9106    1.3823   26.0876  C.3 1 <0>  0.2800
  10   N1       16.1606   -2.2189   30.8006  N.2 1 <0> -0.6611
  11   N2       16.3214   -0.4204   29.2034 N.am 1 <0> -0.4690
  12   N3       17.1082   -4.2957   30.3570 N.pl3 1 <0> -0.8501
  13   O1       18.7676   -2.3524   26.1510  O.3 1 <0> -1.0332
  14   O2       20.3972   -0.3812   26.2318  O.3 1 <0> -1.0332
  15   O3       15.2383   -0.1895   31.2278  O.2 1 <0> -0.5698
  16   O4       18.9314   -0.7527   24.1606  O.2 1 <0> -1.0332
  17   O5       15.9195    0.9503   27.3501  O.3 1 <0> -0.5601
  18   O6       16.1590    3.8665   28.2505  O.3 1 <0> -0.6802
  19   O7       17.9091   -0.0135   26.3390  O.3 1 <0> -0.5513
  20   P1       19.0969   -0.9440   25.6653  P.3 1 <0>  1.3711
  21   H1       17.8742   -3.1797   28.0208    H 1 <0>  0.1500
  22   H2       17.3492   -0.8282   27.4158    H 1 <0>  0.1500
  23   H3       18.1606    1.4045   29.2633    H 1 <0>  0.0000
  24   H4       16.9545    2.3982   30.0823    H 1 <0>  0.0000
  25   H5       18.1077    3.3505   27.8554    H 1 <0>  0.0000
  26   H6       16.1299    2.5728   26.0999    H 1 <0>  0.0000
  27   H7       15.1072    1.2310   29.2399    H 1 <0>  0.0000
  28   H8       18.8490    1.8078   26.4511    H 1 <0>  0.0000
  29   H9       17.8303    1.5497   25.0110    H 1 <0>  0.0000
  30  H10       17.6202   -4.8585   29.7214    H 1 <0>  0.3999
  31  H11       16.7827   -4.6124   31.2382    H 1 <0>  0.3999
  32  H12       16.2444    4.5750   27.6083    H 1 <0>  0.3999
@<TRIPOS>BOND
    1     1     2  1
    2     1     3  1
    3     2    11  1
    4     3    10  1
    5     3    12  1
    6     4    10  1
    7     4    11  1
    8     4    15  1
    9     5     6  1
   10     5     8  1
   11     6     7  1
   12     6    18  1
   13     7     9  1
   14     7    17  1
   15     8    11  1
   16     8    17  1
   17     9    19  1
   18    13    20  1
   19    14    20  1
   20    16    20  1
   21    19    20  1
   22     1    21  1
   23     2    22  1
   24     5    23  1
   25     5    24  1
   26     6    25  1
   27     7    26  1
   28     8    27  1
   29     9    28  1
   30     9    29  1
   31    12    30  1
   32    12    31  1
   33    18    32  1

@<TRIPOS>MOLECULE
MOL
   32   33    0    0    0
SMALL
USER_CHARGES


@<TRIPOS>ATOM
   1   C1       17.3707   -2.4887   28.7307  C.2 1 <0> -0.1356
   2   C2       17.0712   -1.2337   28.4017  C.2 1 <0> -0.0410
   3   C3       16.8977   -2.9530   30.0609  C.2 1 <0>  0.4856
   4   C4       15.9235   -0.8668   30.5002  C.2 1 <0>  0.8408
   5   C5       17.2008    1.9192   29.1372  C.3 1 <0>  0.0000
   6   C6       17.1500    2.8914   27.9813  C.3 1 <0>  0.2800
   7   C7       16.7283    2.0138   26.8111  C.3 1 <0>  0.2800
   8   C8       16.0848    0.9451   28.7968  C.3 1 <0>  0.5801
   9   C9       17.9106    1.3823   26.0876  C.3 1 <0>  0.2800
  10   N1       16.2246   -2.1688   30.8615  N.2 1 <0> -0.6611
  11   N2       16.3589   -0.3910   29.2390 N.am 1 <0> -0.4690
  12   N3       17.1862   -4.2437   30.4391 N.pl3 1 <0> -0.8501
  13   O1       18.7676   -2.3524   26.1510  O.3 1 <0> -1.0332
  14   O2       20.3972   -0.3812   26.2318  O.3 1 <0> -1.0332
  15   O3       15.2885   -0.1415   31.2680  O.2 1 <0> -0.5698
  16   O4       18.9314   -0.7527   24.1606  O.2 1 <0> -1.0332
  17   O5       15.9323    0.9511   27.3703  O.3 1 <0> -0.5601
  18   O6       16.1539    3.8811   28.2294  O.3 1 <0> -0.6802
  19   O7       17.9091   -0.0135   26.3390  O.3 1 <0> -0.5513
  20   P1       19.0969   -0.9440   25.6653  P.3 1 <0>  1.3711
  21   H1       17.9261   -3.1532   28.0825    H 1 <0>  0.1500
  22   H2       17.3772   -0.8145   27.4496    H 1 <0>  0.1500
  23   H3       18.1832    1.4497   29.2609    H 1 <0>  0.0000
  24   H4       16.9747    2.4444   30.0751    H 1 <0>  0.0000
  25   H5       18.1039    3.3759   27.8272    H 1 <0>  0.0000
  26   H6       16.1202    2.5582   26.0968    H 1 <0>  0.0000
  27   H7       15.1312    1.2507   29.2620    H 1 <0>  0.0000
  28   H8       18.8490    1.8078   26.4511    H 1 <0>  0.0000
  29   H9       17.8303    1.5497   25.0110    H 1 <0>  0.0000
  30  H10       17.6984   -4.8108   29.8075    H 1 <0>  0.3999
  31  H11       16.8697   -4.5510   31.3269    H 1 <0>  0.3999
  32  H12       16.2288    4.5815   27.5771    H 1 <0>  0.3999
@<TRIPOS>BOND
    1     1     2  1
    2     1     3  1
    3     2    11  1
    4     3    10  1
    5     3    12  1
    6     4    10  1
    7     4    11  1
    8     4    15  1
    9     5     6  1
   10     5     8  1
   11     6     7  1
   12     6    18  1
   13     7     9  1
   14     7    17  1
   15     8    11  1
   16     8    17  1
   17     9    19  1
   18    13    20  1
   19    14    20  1
   20    16    20  1
   21    19    20  1
   22     1    21  1
   23     2    22  1
   24     5    23  1
   25     5    24  1
   26     6    25  1
   27     7    26  1
   28     8    27  1
   29     9    28  1
   30     9    29  1
   31    12    30  1
   32    12    31  1
   33    18    32  1

@<TRIPOS>MOLECULE
MOL
   32   33    0    0    0
SMALL
USER_CHARGES


@<TRIPOS>ATOM
   1   C1       17.4219   -2.4568   28.7866  C.2 1 <0> -0.1356
   2   C2       17.1097   -1.2089   28.4429  C.2 1 <0> -0.0410
   3   C3       16.9624   -2.9068   30.1264  C.2 1 <0>  0.4856
   4   C4       15.9740   -0.8230   30.5446  C.2 1 <0>  0.8408
   5   C5       17.2183    1.9547   29.1348  C.3 1 <0>  0.0000
   6   C6       17.1511    2.9107   27.9663  C.3 1 <0>  0.2800
   7   C7       16.7283    2.0138   26.8111  C.3 1 <0>  0.2800
   8   C8       16.1081    0.9668   28.8157  C.3 1 <0>  0.5801
   9   C9       17.9106    1.3823   26.0876  C.3 1 <0>  0.2800
  10   N1       16.2886   -2.1175   30.9212  N.2 1 <0> -0.6611
  11   N2       16.3964   -0.3607   29.2739 N.am 1 <0> -0.4690
  12   N3       17.2644   -4.1898   30.5199 N.pl3 1 <0> -0.8501
  13   O1       18.7676   -2.3524   26.1510  O.3 1 <0> -1.0332
  14   O2       20.3972   -0.3812   26.2318  O.3 1 <0> -1.0332
  15   O3       15.3386   -0.0926   31.3071  O.2 1 <0> -0.5698
  16   O4       18.9314   -0.7527   24.1606  O.2 1 <0> -1.0332
  17   O5       15.9452    0.9523   27.3904  O.3 1 <0> -0.5601
  18   O6       16.1486    3.8954   28.2082  O.3 1 <0> -0.6802
  19   O7       17.9091   -0.0135   26.3390  O.3 1 <0> -0.5513
  20   P1       19.0969   -0.9440   25.6653  P.3 1 <0>  1.3711
  21   H1       17.9783   -3.1254   28.1434    H 1 <0>  0.1500
  22   H2       17.4054   -0.8001   27.4831    H 1 <0>  0.1500
  23   H3       18.2054    1.4950   29.2576    H 1 <0>  0.0000
  24   H4       16.9946    2.4907   30.0671    H 1 <0>  0.0000
  25   H5       18.0998    3.4008   27.7986    H 1 <0>  0.0000
  26   H6       16.1106    2.5434   26.0940    H 1 <0>  0.0000
  27   H7       15.1553    1.2709   29.2837    H 1 <0>  0.0000
  28   H8       18.8490    1.8078   26.4511    H 1 <0>  0.0000
  29   H9       17.8303    1.5497   25.0110    H 1 <0>  0.0000
  30  H10       17.7767   -4.7612   29.8923    H 1 <0>  0.3999
  31  H11       16.9569   -4.4877   31.4140    H 1 <0>  0.3999
  32  H12       16.2129    4.5875   27.5460    H 1 <0>  0.3999
@<TRIPOS>BOND
    1     1     2  1
    2     1     3  1
    3     2    11  1
    4     3    10  1
    5     3    12  1
    6     4    10  1
    7     4    11  1
    8     4    15  1
    9     5     6  1
   10     5     8  1
   11     6     7  1
   12     6    18  1
   13     7     9  1
   14     7    17  1
   15     8    11  1
   16     8    17  1
   17     9    19  1
   18    13    20  1
   19    14    20  1
   20    16    20  1
   21    19    20  1
   22     1    21  1
   23     2    22  1
   24     5    23  1
   25     5    24  1
   26     6    25  1
   27     7    26  1
   28     8    27  1
   29     9    28  1
   30     9    29  1
   31    12    30  1
   32    12    31  1
   33    18    32  1

@<TRIPOS>MOLECULE
MOL
   32   33    0    0    0
SMALL
USER_CHARGES


@<TRIPOS>ATOM
   1   C1       17.4734   -2.4237   28.8418  C.2 1 <0> -0.1356
   2   C2       17.1482   -1.1832   28.4835  C.2 1 <0> -0.0410
   3   C3       17.0272   -2.8593   30.1908  C.2 1 <0>  0.4856
   4   C4       16.0246   -0.7781   30.5880  C.2 1 <0>  0.8408
   5   C5       17.2354    1.9903   29.1318  C.3 1 <0>  0.0000
   6   C6       17.1519    2.9298   27.9509  C.3 1 <0>  0.2800
   7   C7       16.7283    2.0138   26.8111  C.3 1 <0>  0.2800
   8   C8       16.1312    0.9891   28.8342  C.3 1 <0>  0.5801
   9   C9       17.9106    1.3823   26.0876  C.3 1 <0>  0.2800
  10   N1       16.3526   -2.0648   30.9798  N.2 1 <0> -0.6611
  11   N2       16.4339   -0.3297   29.3081 N.am 1 <0> -0.4690
  12   N3       17.3427   -4.1343   30.5994 N.pl3 1 <0> -0.8501
  13   O1       18.7676   -2.3524   26.1510  O.3 1 <0> -1.0332
  14   O2       20.3972   -0.3812   26.2318  O.3 1 <0> -1.0332
  15   O3       15.3885   -0.0428   31.3451  O.2 1 <0> -0.5698
  16   O4       18.9314   -0.7527   24.1606  O.2 1 <0> -1.0332
  17   O5       15.9583    0.9538   27.4104  O.3 1 <0> -0.5601
  18   O6       16.1429    3.9094   28.1868  O.3 1 <0> -0.6802
  19   O7       17.9091   -0.0135   26.3390  O.3 1 <0> -0.5513
  20   P1       19.0969   -0.9440   25.6653  P.3 1 <0>  1.3711
  21   H1       18.0306   -3.0963   28.2036    H 1 <0>  0.1500
  22   H2       17.4336   -0.7850   27.5161    H 1 <0>  0.1500
  23   H3       18.2272    1.5405   29.2535    H 1 <0>  0.0000
  24   H4       17.0140    2.5370   30.0583    H 1 <0>  0.0000
  25   H5       18.0952    3.4254   27.7697    H 1 <0>  0.0000
  26   H6       16.1010    2.5285   26.0914    H 1 <0>  0.0000
  27   H7       15.1793    1.2916   29.3049    H 1 <0>  0.0000
  28   H8       18.8490    1.8078   26.4511    H 1 <0>  0.0000
  29   H9       17.8303    1.5497   25.0110    H 1 <0>  0.0000
  30  H10       17.8553   -4.7099   29.9759    H 1 <0>  0.3999
  31  H11       17.0441   -4.4225   31.4997    H 1 <0>  0.3999
  32  H12       16.1968    4.5929   27.5149    H 1 <0>  0.3999
@<TRIPOS>BOND
    1     1     2  1
    2     1     3  1
    3     2    11  1
    4     3    10  1
    5     3    12  1
    6     4    10  1
    7     4    11  1
    8     4    15  1
    9     5     6  1
   10     5     8  1
   11     6     7  1
   12     6    18  1
   13     7     9  1
   14     7    17  1
   15     8    11  1
   16     8    17  1
   17     9    19  1
   18    13    20  1
   19    14    20  1
   20    16    20  1
   21    19    20  1
   22     1    21  1
   23     2    22  1
   24     5    23  1
   25     5    24  1
   26     6    25  1
   27     7    26  1
   28     8    27  1
   29     9    28  1
   30     9    29  1
   31    12    30  1
   32    12    31  1
   33    18    32  1

@<TRIPOS>MOLECULE
MOL
   32   33    0    0    0
SMALL
USER_CHARGES


@<TRIPOS>ATOM
   1   C1       17.5249   -2.3894   28.8961  C.2 1 <0> -0.1356
   2   C2       17.1869   -1.1566   28.5235  C.2 1 <0> -0.0410
   3   C3       17.0921   -2.8103   30.2541  C.2 1 <0>  0.4856
   4   C4       16.0750   -0.7323   30.6304  C.2 1 <0>  0.8408
   5   C5       17.2522    2.0260   29.1281  C.3 1 <0>  0.0000
   6   C6       17.1524    2.9486   27.9353  C.3 1 <0>  0.2800
   7   C7       16.7283    2.0138   26.8111  C.3 1 <0>  0.2800
   8   C8       16.1543    1.0118   28.8521  C.3 1 <0>  0.5801
   9   C9       17.9106    1.3823   26.0876  C.3 1 <0>  0.2800
  10   N1       16.4165   -2.0108   31.0372  N.2 1 <0> -0.6611
  11   N2       16.4714   -0.2980   29.3416 N.am 1 <0> -0.4690
  12   N3       17.4212   -4.0770   30.6776 N.pl3 1 <0> -0.8501
  13   O1       18.7676   -2.3524   26.1510  O.3 1 <0> -1.0332
  14   O2       20.3972   -0.3812   26.2318  O.3 1 <0> -1.0332
  15   O3       15.4383    0.0080   31.3822  O.2 1 <0> -0.5698
  16   O4       18.9314   -0.7527   24.1606  O.2 1 <0> -1.0332
  17   O5       15.9715    0.9557   27.4303  O.3 1 <0> -0.5601
  18   O6       16.1370    3.9230   28.1653  O.3 1 <0> -0.6802
  19   O7       17.9091   -0.0135   26.3390  O.3 1 <0> -0.5513
  20   P1       19.0969   -0.9440   25.6653  P.3 1 <0>  1.3711
  21   H1       18.0832   -3.0661   28.2630    H 1 <0>  0.1500
  22   H2       17.4620   -0.7693   27.5487    H 1 <0>  0.1500
  23   H3       18.2486    1.5860   29.2487    H 1 <0>  0.0000
  24   H4       17.0329    2.5834   30.0488    H 1 <0>  0.0000
  25   H5       18.0903    3.4495   27.7406    H 1 <0>  0.0000
  26   H6       16.0916    2.5135   26.0891    H 1 <0>  0.0000
  27   H7       15.2034    1.3128   29.3256    H 1 <0>  0.0000
  28   H8       18.8490    1.8078   26.4511    H 1 <0>  0.0000
  29   H9       17.8303    1.5497   25.0110    H 1 <0>  0.0000
  30  H10       17.9340   -4.6568   30.0581    H 1 <0>  0.3999
  31  H11       17.1314   -4.3554   31.5839    H 1 <0>  0.3999
  32  H12       16.1804    4.5978   27.4838    H 1 <0>  0.3999
@<TRIPOS>BOND
    1     1     2  1
    2     1     3  1
    3     2    11  1
    4     3    10  1
    5     3    12  1
    6     4    10  1
    7     4    11  1
    8     4    15  1
    9     5     6  1
   10     5     8  1
   11     6     7  1
   12     6    18  1
   13     7     9  1
   14     7    17  1
   15     8    11  1
   16     8    17  1
   17     9    19  1
   18    13    20  1
   19    14    20  1
   20    16    20  1
   21    19    20  1
   22     1    21  1
   23     2    22  1
   24     5    23  1
   25     5    24  1
   26     6    25  1
   27     7    26  1
   28     8    27  1
   29     9    28  1
   30     9    29  1
   31    12    30  1
   32    12    31  1
   33    18    32  1

@<TRIPOS>MOLECULE
MOL
   32   33    0    0    0
SMALL
USER_CHARGES


@<TRIPOS>ATOM
   1   C1       17.5765   -2.3540   28.9495  C.2 1 <0> -0.1356
   2   C2       17.2256   -1.1292   28.5628  C.2 1 <0> -0.0410
   3   C3       17.1570   -2.7600   30.3163  C.2 1 <0>  0.4856
   4   C4       16.1254   -0.6855   30.6719  C.2 1 <0>  0.8408
   5   C5       17.2687    2.0618   29.1238  C.3 1 <0>  0.0000
   6   C6       17.1526    2.9672   27.9195  C.3 1 <0>  0.2800
   7   C7       16.7283    2.0138   26.8111  C.3 1 <0>  0.2800
   8   C8       16.1774    1.0349   28.8696  C.3 1 <0>  0.5801
   9   C9       17.9106    1.3823   26.0876  C.3 1 <0>  0.2800
  10   N1       16.4805   -1.9555   31.0934  N.2 1 <0> -0.6611
  11   N2       16.5088   -0.2654   29.3744 N.am 1 <0> -0.4690
  12   N3       17.4997   -4.0180   30.7544 N.pl3 1 <0> -0.8501
  13   O1       18.7676   -2.3524   26.1510  O.3 1 <0> -1.0332
  14   O2       20.3972   -0.3812   26.2318  O.3 1 <0> -1.0332
  15   O3       15.4879    0.0597   31.4182  O.2 1 <0> -0.5698
  16   O4       18.9314   -0.7527   24.1606  O.2 1 <0> -1.0332
  17   O5       15.9848    0.9580   27.4500  O.3 1 <0> -0.5601
  18   O6       16.1309    3.9362   28.1436  O.3 1 <0> -0.6802
  19   O7       17.9091   -0.0135   26.3390  O.3 1 <0> -0.5513
  20   P1       19.0969   -0.9440   25.6653  P.3 1 <0>  1.3711
  21   H1       18.1359   -3.0345   28.3216    H 1 <0>  0.1500
  22   H2       17.4904   -0.7529   27.5809    H 1 <0>  0.1500
  23   H3       18.2695    1.6317   29.2431    H 1 <0>  0.0000
  24   H4       17.0514    2.6298   30.0385    H 1 <0>  0.0000
  25   H5       18.0849    3.4731   27.7111    H 1 <0>  0.0000
  26   H6       16.0823    2.4984   26.0871    H 1 <0>  0.0000
  27   H7       15.2273    1.3344   29.3459    H 1 <0>  0.0000
  28   H8       18.8490    1.8078   26.4511    H 1 <0>  0.0000
  29   H9       17.8303    1.5497   25.0110    H 1 <0>  0.0000
  30  H10       18.0129   -4.6019   30.1391    H 1 <0>  0.3999
  31  H11       17.2188   -4.2865   31.6664    H 1 <0>  0.3999
  32  H12       16.1637    4.6021   27.4528    H 1 <0>  0.3999
@<TRIPOS>BOND
    1     1     2  1
    2     1     3  1
    3     2    11  1
    4     3    10  1
    5     3    12  1
    6     4    10  1
    7     4    11  1
    8     4    15  1
    9     5     6  1
   10     5     8  1
   11     6     7  1
   12     6    18  1
   13     7     9  1
   14     7    17  1
   15     8    11  1
   16     8    17  1
   17     9    19  1
   18    13    20  1
   19    14    20  1
   20    16    20  1
   21    19    20  1
   22     1    21  1
   23     2    22  1
   24     5    23  1
   25     5    24  1
   26     6    25  1
   27     7    26  1
   28     8    27  1
   29     9    28  1
   30     9    29  1
   31    12    30  1
   32    12    31  1
   33    18    32  1

@<TRIPOS>MOLECULE
MOL
   32   33    0    0    0
SMALL
USER_CHARGES


@<TRIPOS>ATOM
   1   C1       17.6283   -2.3174   29.0021  C.2 1 <0> -0.1356
   2   C2       17.2643   -1.1009   28.6014  C.2 1 <0> -0.0410
   3   C3       17.2220   -2.7082   30.3772  C.2 1 <0>  0.4856
   4   C4       16.1756   -0.6377   30.7123  C.2 1 <0>  0.8408
   5   C5       17.2849    2.0976   29.1190  C.3 1 <0>  0.0000
   6   C6       17.1526    2.9857   27.9033  C.3 1 <0>  0.2800
   7   C7       16.7283    2.0138   26.8111  C.3 1 <0>  0.2800
   8   C8       16.2003    1.0584   28.8866  C.3 1 <0>  0.5801
   9   C9       17.9106    1.3823   26.0876  C.3 1 <0>  0.2800
  10   N1       16.5443   -1.8989   31.1483  N.2 1 <0> -0.6611
  11   N2       16.5462   -0.2321   29.4066 N.am 1 <0> -0.4690
  12   N3       17.5782   -3.9574   30.8298 N.pl3 1 <0> -0.8501
  13   O1       18.7676   -2.3524   26.1510  O.3 1 <0> -1.0332
  14   O2       20.3972   -0.3812   26.2318  O.3 1 <0> -1.0332
  15   O3       15.5373    0.1123   31.4531  O.2 1 <0> -0.5698
  16   O4       18.9314   -0.7527   24.1606  O.2 1 <0> -1.0332
  17   O5       15.9982    0.9607   27.4696  O.3 1 <0> -0.5601
  18   O6       16.1244    3.9492   28.1219  O.3 1 <0> -0.6802
  19   O7       17.9091   -0.0135   26.3390  O.3 1 <0> -0.5513
  20   P1       19.0969   -0.9440   25.6653  P.3 1 <0>  1.3711
  21   H1       18.1887   -3.0018   28.3794    H 1 <0>  0.1500
  22   H2       17.5190   -0.7358   27.6126    H 1 <0>  0.1500
  23   H3       18.2901    1.6775   29.2368    H 1 <0>  0.0000
  24   H4       17.0694    2.6762   30.0274    H 1 <0>  0.0000
  25   H5       18.0791    3.4964   27.6814    H 1 <0>  0.0000
  26   H6       16.0731    2.4832   26.0853    H 1 <0>  0.0000
  27   H7       15.2513    1.3566   29.3658    H 1 <0>  0.0000
  28   H8       18.8490    1.8078   26.4511    H 1 <0>  0.0000
  29   H9       17.8303    1.5497   25.0110    H 1 <0>  0.0000
  30  H10       18.0918   -4.5453   30.2188    H 1 <0>  0.3999
  31  H11       17.3061   -4.2158   31.7475    H 1 <0>  0.3999
  32  H12       16.1467    4.6058   27.4219    H 1 <0>  0.3999
@<TRIPOS>BOND
    1     1     2  1
    2     1     3  1
    3     2    11  1
    4     3    10  1
    5     3    12  1
    6     4    10  1
    7     4    11  1
    8     4    15  1
    9     5     6  1
   10     5     8  1
   11     6     7  1
   12     6    18  1
   13     7     9  1
   14     7    17  1
   15     8    11  1
   16     8    17  1
   17     9    19  1
   18    13    20  1
   19    14    20  1
   20    16    20  1
   21    19    20  1
   22     1    21  1
   23     2    22  1
   24     5    23  1
   25     5    24  1
   26     6    25  1
   27     7    26  1
   28     8    27  1
   29     9    28  1
   30     9    29  1
   31    12    30  1
   32    12    31  1
   33    18    32  1

@<TRIPOS>MOLECULE
MOL
   32   33    0    0    0
SMALL
USER_CHARGES


@<TRIPOS>ATOM
   1   C1       17.6801   -2.2797   29.0538  C.2 1 <0> -0.1356
   2   C2       17.3031   -1.0718   28.6394  C.2 1 <0> -0.0410
   3   C3       17.2869   -2.6551   30.4371  C.2 1 <0>  0.4856
   4   C4       16.2258   -0.5890   30.7517  C.2 1 <0>  0.8408
   5   C5       17.3007    2.1335   29.1135  C.3 1 <0>  0.0000
   6   C6       17.1523    3.0039   27.8870  C.3 1 <0>  0.2800
   7   C7       16.7283    2.0138   26.8111  C.3 1 <0>  0.2800
   8   C8       16.2232    1.0823   28.9031  C.3 1 <0>  0.5801
   9   C9       17.9106    1.3823   26.0876  C.3 1 <0>  0.2800
  10   N1       16.6081   -1.8410   31.2020  N.2 1 <0> -0.6611
  11   N2       16.5836   -0.1981   29.4379 N.am 1 <0> -0.4690
  12   N3       17.6568   -3.8951   30.9039 N.pl3 1 <0> -0.8501
  13   O1       18.7676   -2.3524   26.1510  O.3 1 <0> -1.0332
  14   O2       20.3972   -0.3812   26.2318  O.3 1 <0> -1.0332
  15   O3       15.5866    0.1657   31.4869  O.2 1 <0> -0.5698
  16   O4       18.9314   -0.7527   24.1606  O.2 1 <0> -1.0332
  17   O5       16.0118    0.9638   27.4891  O.3 1 <0> -0.5601
  18   O6       16.1178    3.9617   28.0999  O.3 1 <0> -0.6802
  19   O7       17.9091   -0.0135   26.3390  O.3 1 <0> -0.5513
  20   P1       19.0969   -0.9440   25.6653  P.3 1 <0>  1.3711
  21   H1       18.2417   -2.9678   28.4364    H 1 <0>  0.1500
  22   H2       17.5476   -0.7181   27.6439    H 1 <0>  0.1500
  23   H3       18.3102    1.7233   29.2296    H 1 <0>  0.0000
  24   H4       17.0869    2.7226   30.0156    H 1 <0>  0.0000
  25   H5       18.0729    3.5191   27.6514    H 1 <0>  0.0000
  26   H6       16.0640    2.4678   26.0838    H 1 <0>  0.0000
  27   H7       15.2752    1.3792   29.3851    H 1 <0>  0.0000
  28   H8       18.8490    1.8078   26.4511    H 1 <0>  0.0000
  29   H9       17.8303    1.5497   25.0110    H 1 <0>  0.0000
  30  H10       18.1709   -4.4870   30.2971    H 1 <0>  0.3999
  31  H11       17.3935   -4.1432   31.8269    H 1 <0>  0.3999
  32  H12       16.1295    4.6090   27.3910    H 1 <0>  0.3999
@<TRIPOS>BOND
    1     1     2  1
    2     1     3  1
    3     2    11  1
    4     3    10  1
    5     3    12  1
    6     4    10  1
    7     4    11  1
    8     4    15  1
    9     5     6  1
   10     5     8  1
   11     6     7  1
   12     6    18  1
   13     7     9  1
   14     7    17  1
   15     8    11  1
   16     8    17  1
   17     9    19  1
   18    13    20  1
   19    14    20  1
   20    16    20  1
   21    19    20  1
   22     1    21  1
   23     2    22  1
   24     5    23  1
   25     5    24  1
   26     6    25  1
   27     7    26  1
   28     8    27  1
   29     9    28  1
   30     9    29  1
   31    12    30  1
   32    12    31  1
   33    18    32  1

@<TRIPOS>MOLECULE
MOL
   32   33    0    0    0
SMALL
USER_CHARGES


@<TRIPOS>ATOM
   1   C1       17.7319   -2.2408   29.1047  C.2 1 <0> -0.1356
   2   C2       17.3419   -1.0418   28.6767  C.2 1 <0> -0.0410
   3   C3       17.3519   -2.6007   30.4957  C.2 1 <0>  0.4856
   4   C4       16.2758   -0.5393   30.7901  C.2 1 <0>  0.8408
   5   C5       17.3162    2.1695   29.1075  C.3 1 <0>  0.0000
   6   C6       17.1518    3.0218   27.8704  C.3 1 <0>  0.2800
   7   C7       16.7283    2.0138   26.8111  C.3 1 <0>  0.2800
   8   C8       16.2461    1.1067   28.9192  C.3 1 <0>  0.5801
   9   C9       17.9106    1.3823   26.0876  C.3 1 <0>  0.2800
  10   N1       16.6718   -1.7819   31.2545  N.2 1 <0> -0.6611
  11   N2       16.6209   -0.1634   29.4686 N.am 1 <0> -0.4690
  12   N3       17.7354   -3.8311   30.9765 N.pl3 1 <0> -0.8501
  13   O1       18.7676   -2.3524   26.1510  O.3 1 <0> -1.0332
  14   O2       20.3972   -0.3812   26.2318  O.3 1 <0> -1.0332
  15   O3       15.6356    0.2200   31.5197  O.2 1 <0> -0.5698
  16   O4       18.9314   -0.7527   24.1606  O.2 1 <0> -1.0332
  17   O5       16.0255    0.9672   27.5084  O.3 1 <0> -0.5601
  18   O6       16.1108    3.9740   28.0779  O.3 1 <0> -0.6802
  19   O7       17.9091   -0.0135   26.3390  O.3 1 <0> -0.5513
  20   P1       19.0969   -0.9440   25.6653  P.3 1 <0>  1.3711
  21   H1       18.2948   -2.9327   28.4925    H 1 <0>  0.1500
  22   H2       17.5763   -0.6997   27.6748    H 1 <0>  0.1500
  23   H3       18.3299    1.7692   29.2217    H 1 <0>  0.0000
  24   H4       17.1040    2.7690   30.0030    H 1 <0>  0.0000
  25   H5       18.0663    3.5414   27.6212    H 1 <0>  0.0000
  26   H6       16.0551    2.4524   26.0826    H 1 <0>  0.0000
  27   H7       15.2991    1.4022   29.4040    H 1 <0>  0.0000
  28   H8       18.8490    1.8078   26.4511    H 1 <0>  0.0000
  29   H9       17.8303    1.5497   25.0110    H 1 <0>  0.0000
  30  H10       18.2501   -4.4270   30.3741    H 1 <0>  0.3999
  31  H11       17.4808   -4.0688   31.9046    H 1 <0>  0.3999
  32  H12       16.1121    4.6116   27.3602    H 1 <0>  0.3999
@<TRIPOS>BOND
    1     1     2  1
    2     1     3  1
    3     2    11  1
    4     3    10  1
    5     3    12  1
    6     4    10  1
    7     4    11  1
    8     4    15  1
    9     5     6  1
   10     5     8  1
   11     6     7  1
   12     6    18  1
   13     7     9  1
   14     7    17  1
   15     8    11  1
   16     8    17  1
   17     9    19  1
   18    13    20  1
   19    14    20  1
   20    16    20  1
   21    19    20  1
   22     1    21  1
   23     2    22  1
   24     5    23  1
   25     5    24  1
   26     6    25  1
   27     7    26  1
   28     8    27  1
   29     9    28  1
   30     9    29  1
   31    12    30  1
   32    12    31  1
   33    18    32  1

@<TRIPOS>MOLECULE
MOL
   32   33    0    0    0
SMALL
USER_CHARGES


@<TRIPOS>ATOM
   1   C1       17.7838   -2.2009   29.1546  C.2 1 <0> -0.1356
   2   C2       17.3808   -1.0111   28.7133  C.2 1 <0> -0.0410
   3   C3       17.4168   -2.5450   30.5531  C.2 1 <0>  0.4856
   4   C4       16.3257   -0.4887   30.8274  C.2 1 <0>  0.8408
   5   C5       17.3314    2.2055   29.1008  C.3 1 <0>  0.0000
   6   C6       17.1509    3.0396   27.8535  C.3 1 <0>  0.2800
   7   C7       16.7283    2.0138   26.8111  C.3 1 <0>  0.2800
   8   C8       16.2688    1.1315   28.9347  C.3 1 <0>  0.5801
   9   C9       17.9106    1.3823   26.0876  C.3 1 <0>  0.2800
  10   N1       16.7353   -1.7215   31.3057  N.2 1 <0> -0.6611
  11   N2       16.6582   -0.1279   29.4985 N.am 1 <0> -0.4690
  12   N3       17.8140   -3.7655   31.0477 N.pl3 1 <0> -0.8501
  13   O1       18.7676   -2.3524   26.1510  O.3 1 <0> -1.0332
  14   O2       20.3972   -0.3812   26.2318  O.3 1 <0> -1.0332
  15   O3       15.6845    0.2752   31.5513  O.2 1 <0> -0.5698
  16   O4       18.9314   -0.7527   24.1606  O.2 1 <0> -1.0332
  17   O5       16.0392    0.9710   27.5276  O.3 1 <0> -0.5601
  18   O6       16.1036    3.9858   28.0558  O.3 1 <0> -0.6802
  19   O7       17.9091   -0.0135   26.3390  O.3 1 <0> -0.5513
  20   P1       19.0969   -0.9440   25.6653  P.3 1 <0>  1.3711
  21   H1       18.3481   -2.8963   28.5477    H 1 <0>  0.1500
  22   H2       17.6051   -0.6806   27.7052    H 1 <0>  0.1500
  23   H3       18.3492    1.8152   29.2131    H 1 <0>  0.0000
  24   H4       17.1206    2.8153   29.9897    H 1 <0>  0.0000
  25   H5       18.0593    3.5633   27.5907    H 1 <0>  0.0000
  26   H6       16.0462    2.4369   26.0817    H 1 <0>  0.0000
  27   H7       15.3229    1.4257   29.4224    H 1 <0>  0.0000
  28   H8       18.8490    1.8078   26.4511    H 1 <0>  0.0000
  29   H9       17.8303    1.5497   25.0110    H 1 <0>  0.0000
  30  H10       18.3293   -4.3652   30.4496    H 1 <0>  0.3999
  31  H11       17.5681   -3.9927   31.9808    H 1 <0>  0.3999
  32  H12       16.0944    4.6136   27.3295    H 1 <0>  0.3999
@<TRIPOS>BOND
    1     1     2  1
    2     1     3  1
    3     2    11  1
    4     3    10  1
    5     3    12  1
    6     4    10  1
    7     4    11  1
    8     4    15  1
    9     5     6  1
   10     5     8  1
   11     6     7  1
   12     6    18  1
   13     7     9  1
   14     7    17  1
   15     8    11  1
   16     8    17  1
   17     9    19  1
   18    13    20  1
   19    14    20  1
   20    16    20  1
   21    19    20  1
   22     1    21  1
   23     2    22  1
   24     5    23  1
   25     5    24  1
   26     6    25  1
   27     7    26  1
   28     8    27  1
   29     9    28  1
   30     9    29  1
   31    12    30  1
   32    12    31  1
   33    18    32  1

@<TRIPOS>MOLECULE
MOL
   32   33    0    0    0
SMALL
USER_CHARGES


@<TRIPOS>ATOM
   1   C1       17.8357   -2.1598   29.2036  C.2 1 <0> -0.1356
   2   C2       17.4196   -0.9795   28.7492  C.2 1 <0> -0.0410
   3   C3       17.4816   -2.4879   30.6092  C.2 1 <0>  0.4856
   4   C4       16.3754   -0.4371   30.8637  C.2 1 <0>  0.8408
   5   C5       17.3462    2.2415   29.0935  C.3 1 <0>  0.0000
   6   C6       17.1498    3.0571   27.8365  C.3 1 <0>  0.2800
   7   C7       16.7283    2.0138   26.8111  C.3 1 <0>  0.2800
   8   C8       16.2914    1.1566   28.9497  C.3 1 <0>  0.5801
   9   C9       17.9106    1.3823   26.0876  C.3 1 <0>  0.2800
  10   N1       16.7987   -1.6600   31.3556  N.2 1 <0> -0.6611
  11   N2       16.6953   -0.0917   29.5276 N.am 1 <0> -0.4690
  12   N3       17.8925   -3.6983   31.1174 N.pl3 1 <0> -0.8501
  13   O1       18.7676   -2.3524   26.1510  O.3 1 <0> -1.0332
  14   O2       20.3972   -0.3812   26.2318  O.3 1 <0> -1.0332
  15   O3       15.7331    0.3311   31.5819  O.2 1 <0> -0.5698
  16   O4       18.9314   -0.7527   24.1606  O.2 1 <0> -1.0332
  17   O5       16.0531    0.9752   27.5467  O.3 1 <0> -0.5601
  18   O6       16.0961    3.9973   28.0335  O.3 1 <0> -0.6802
  19   O7       17.9091   -0.0135   26.3390  O.3 1 <0> -0.5513
  20   P1       19.0969   -0.9440   25.6653  P.3 1 <0>  1.3711
  21   H1       18.4014   -2.8588   28.6021    H 1 <0>  0.1500
  22   H2       17.6339   -0.6609   27.7351    H 1 <0>  0.1500
  23   H3       18.3680    1.8612   29.2037    H 1 <0>  0.0000
  24   H4       17.1367    2.8616   29.9756    H 1 <0>  0.0000
  25   H5       18.0519    3.5846   27.5599    H 1 <0>  0.0000
  26   H6       16.0375    2.4214   26.0810    H 1 <0>  0.0000
  27   H7       15.3466    1.4497   29.4403    H 1 <0>  0.0000
  28   H8       18.8490    1.8078   26.4511    H 1 <0>  0.0000
  29   H9       17.8303    1.5497   25.0110    H 1 <0>  0.0000
  30  H10       18.4085   -4.3018   30.5237    H 1 <0>  0.3999
  31  H11       17.6552   -3.9149   32.0552    H 1 <0>  0.3999
  32  H12       16.0765    4.6151   27.2989    H 1 <0>  0.3999
@<TRIPOS>BOND
    1     1     2  1
    2     1     3  1
    3     2    11  1
    4     3    10  1
    5     3    12  1
    6     4    10  1
    7     4    11  1
    8     4    15  1
    9     5     6  1
   10     5     8  1
   11     6     7  1
   12     6    18  1
   13     7     9  1
   14     7    17  1
   15     8    11  1
   16     8    17  1
   17     9    19  1
   18    13    20  1
   19    14    20  1
   20    16    20  1
   21    19    20  1
   22     1    21  1
   23     2    22  1
   24     5    23  1
   25     5    24  1
   26     6    25  1
   27     7    26  1
   28     8    27  1
   29     9    28  1
   30     9    29  1
   31    12    30  1
   32    12    31  1
   33    18    32  1

@<TRIPOS>MOLECULE
MOL
   32   33    0    0    0
SMALL
USER_CHARGES


@<TRIPOS>ATOM
   1   C1       17.8876   -2.1177   29.2516  C.2 1 <0> -0.1356
   2   C2       17.4585   -0.9471   28.7844  C.2 1 <0> -0.0410
   3   C3       17.5464   -2.4296   30.6641  C.2 1 <0>  0.4856
   4   C4       16.4250   -0.3847   30.8989  C.2 1 <0>  0.8408
   5   C5       17.3606    2.2776   29.0857  C.3 1 <0>  0.0000
   6   C6       17.1485    3.0744   27.8192  C.3 1 <0>  0.2800
   7   C7       16.7283    2.0138   26.8111  C.3 1 <0>  0.2800
   8   C8       16.3139    1.1822   28.9642  C.3 1 <0>  0.5801
   9   C9       17.9106    1.3823   26.0876  C.3 1 <0>  0.2800
  10   N1       16.8620   -1.5973   31.4042  N.2 1 <0> -0.6611
  11   N2       16.7324   -0.0549   29.5560 N.am 1 <0> -0.4690
  12   N3       17.9710   -3.6295   31.1856 N.pl3 1 <0> -0.8501
  13   O1       18.7676   -2.3524   26.1510  O.3 1 <0> -1.0332
  14   O2       20.3972   -0.3812   26.2318  O.3 1 <0> -1.0332
  15   O3       15.7814    0.3879   31.6113  O.2 1 <0> -0.5698
  16   O4       18.9314   -0.7527   24.1606  O.2 1 <0> -1.0332
  17   O5       16.0671    0.9798   27.5655  O.3 1 <0> -0.5601
  18   O6       16.0884    4.0085   28.0112  O.3 1 <0> -0.6802
  19   O7       17.9091   -0.0135   26.3390  O.3 1 <0> -0.5513
  20   P1       19.0969   -0.9440   25.6653  P.3 1 <0>  1.3711
  21   H1       18.4548   -2.8200   28.6555    H 1 <0>  0.1500
  22   H2       17.6628   -0.6406   27.7645    H 1 <0>  0.1500
  23   H3       18.3863    1.9072   29.1935    H 1 <0>  0.0000
  24   H4       17.1523    2.9078   29.9608    H 1 <0>  0.0000
  25   H5       18.0441    3.6055   27.5289    H 1 <0>  0.0000
  26   H6       16.0289    2.4057   26.0807    H 1 <0>  0.0000
  27   H7       15.3703    1.4741   29.4577    H 1 <0>  0.0000
  28   H8       18.8490    1.8078   26.4511    H 1 <0>  0.0000
  29   H9       17.8303    1.5497   25.0110    H 1 <0>  0.0000
  30  H10       18.4877   -4.2368   30.5964    H 1 <0>  0.3999
  31  H11       17.7422   -3.8353   32.1280    H 1 <0>  0.3999
  32  H12       16.0583    4.6160   27.2685    H 1 <0>  0.3999
@<TRIPOS>BOND
    1     1     2  1
    2     1     3  1
    3     2    11  1
    4     3    10  1
    5     3    12  1
    6     4    10  1
    7     4    11  1
    8     4    15  1
    9     5     6  1
   10     5     8  1
   11     6     7  1
   12     6    18  1
   13     7     9  1
   14     7    17  1
   15     8    11  1
   16     8    17  1
   17     9    19  1
   18    13    20  1
   19    14    20  1
   20    16    20  1
   21    19    20  1
   22     1    21  1
   23     2    22  1
   24     5    23  1
   25     5    24  1
   26     6    25  1
   27     7    26  1
   28     8    27  1
   29     9    28  1
   30     9    29  1
   31    12    30  1
   32    12    31  1
   33    18    32  1

@<TRIPOS>MOLECULE
MOL
   32   33    0    0    0
SMALL
USER_CHARGES


@<TRIPOS>ATOM
   1   C1       17.9395   -2.0745   29.2987  C.2 1 <0> -0.1356
   2   C2       17.4973   -0.9139   28.8189  C.2 1 <0> -0.0410
   3   C3       17.6110   -2.3700   30.7178  C.2 1 <0>  0.4856
   4   C4       16.4743   -0.3314   30.9331  C.2 1 <0>  0.8408
   5   C5       17.3747    2.3136   29.0772  C.3 1 <0>  0.0000
   6   C6       17.1469    3.0914   27.8017  C.3 1 <0>  0.2800
   7   C7       16.7283    2.0138   26.8111  C.3 1 <0>  0.2800
   8   C8       16.3364    1.2081   28.9782  C.3 1 <0>  0.5801
   9   C9       17.9106    1.3823   26.0876  C.3 1 <0>  0.2800
  10   N1       16.9251   -1.5333   31.4515  N.2 1 <0> -0.6611
  11   N2       16.7693   -0.0173   29.5836 N.am 1 <0> -0.4690
  12   N3       18.0494   -3.5592   31.2523 N.pl3 1 <0> -0.8501
  13   O1       18.7676   -2.3524   26.1510  O.3 1 <0> -1.0332
  14   O2       20.3972   -0.3812   26.2318  O.3 1 <0> -1.0332
  15   O3       15.8295    0.4455   31.6396  O.2 1 <0> -0.5698
  16   O4       18.9314   -0.7527   24.1606  O.2 1 <0> -1.0332
  17   O5       16.0812    0.9847   27.5843  O.3 1 <0> -0.5601
  18   O6       16.0804    4.0192   27.9887  O.3 1 <0> -0.6802
  19   O7       17.9091   -0.0135   26.3390  O.3 1 <0> -0.5513
  20   P1       19.0969   -0.9440   25.6653  P.3 1 <0>  1.3711
  21   H1       18.5082   -2.7802   28.7081    H 1 <0>  0.1500
  22   H2       17.6917   -0.6196   27.7935    H 1 <0>  0.1500
  23   H3       18.4042    1.9532   29.1826    H 1 <0>  0.0000
  24   H4       17.1675    2.9540   29.9453    H 1 <0>  0.0000
  25   H5       18.0359    3.6259   27.4978    H 1 <0>  0.0000
  26   H6       16.0204    2.3900   26.0805    H 1 <0>  0.0000
  27   H7       15.3939    1.4989   29.4745    H 1 <0>  0.0000
  28   H8       18.8490    1.8078   26.4511    H 1 <0>  0.0000
  29   H9       17.8303    1.5497   25.0110    H 1 <0>  0.0000
  30  H10       18.5669   -4.1701   30.6676    H 1 <0>  0.3999
  31  H11       17.8291   -3.7540   32.1990    H 1 <0>  0.3999
  32  H12       16.0400    4.6164   27.2381    H 1 <0>  0.3999
@<TRIPOS>BOND
    1     1     2  1
    2     1     3  1
    3     2    11  1
    4     3    10  1
    5     3    12  1
    6     4    10  1
    7     4    11  1
    8     4    15  1
    9     5     6  1
   10     5     8  1
   11     6     7  1
   12     6    18  1
   13     7     9  1
   14     7    17  1
   15     8    11  1
   16     8    17  1
   17     9    19  1
   18    13    20  1
   19    14    20  1
   20    16    20  1
   21    19    20  1
   22     1    21  1
   23     2    22  1
   24     5    23  1
   25     5    24  1
   26     6    25  1
   27     7    26  1
   28     8    27  1
   29     9    28  1
   30     9    29  1
   31    12    30  1
   32    12    31  1
   33    18    32  1

@<TRIPOS>MOLECULE
MOL
   32   33    0    0    0
SMALL
USER_CHARGES


@<TRIPOS>ATOM
   1   C1       17.9914   -2.0302   29.3449  C.2 1 <0> -0.1356
   2   C2       17.5361   -0.8799   28.8526  C.2 1 <0> -0.0410
   3   C3       17.6756   -2.3091   30.7701  C.2 1 <0>  0.4856
   4   C4       16.5235   -0.2772   30.9662  C.2 1 <0>  0.8408
   5   C5       17.3885    2.3497   29.0682  C.3 1 <0>  0.0000
   6   C6       17.1450    3.1081   27.7839  C.3 1 <0>  0.2800
   7   C7       16.7283    2.0138   26.8111  C.3 1 <0>  0.2800
   8   C8       16.3587    1.2344   28.9917  C.3 1 <0>  0.5801
   9   C9       17.9106    1.3823   26.0876  C.3 1 <0>  0.2800
  10   N1       16.9880   -1.4683   31.4975  N.2 1 <0> -0.6611
  11   N2       16.8062    0.0209   29.6104 N.am 1 <0> -0.4690
  12   N3       18.1277   -3.4873   31.3175 N.pl3 1 <0> -0.8501
  13   O1       18.7676   -2.3524   26.1510  O.3 1 <0> -1.0332
  14   O2       20.3972   -0.3812   26.2318  O.3 1 <0> -1.0332
  15   O3       15.8773    0.5038   31.6668  O.2 1 <0> -0.5698
  16   O4       18.9314   -0.7527   24.1606  O.2 1 <0> -1.0332
  17   O5       16.0953    0.9900   27.6028  O.3 1 <0> -0.5601
  18   O6       16.0722    4.0296   27.9662  O.3 1 <0> -0.6802
  19   O7       17.9091   -0.0135   26.3390  O.3 1 <0> -0.5513
  20   P1       19.0969   -0.9440   25.6653  P.3 1 <0>  1.3711
  21   H1       18.5617   -2.7391   28.7597    H 1 <0>  0.1500
  22   H2       17.7207   -0.5980   27.8219    H 1 <0>  0.1500
  23   H3       18.4216    1.9992   29.1709    H 1 <0>  0.0000
  24   H4       17.1821    3.0000   29.9290    H 1 <0>  0.0000
  25   H5       18.0273    3.6458   27.4663    H 1 <0>  0.0000
  26   H6       16.0121    2.3742   26.0807    H 1 <0>  0.0000
  27   H7       15.4174    1.5241   29.4909    H 1 <0>  0.0000
  28   H8       18.8490    1.8078   26.4511    H 1 <0>  0.0000
  29   H9       17.8303    1.5497   25.0110    H 1 <0>  0.0000
  30  H10       18.6460   -4.1018   30.7373    H 1 <0>  0.3999
  31  H11       17.9158   -3.6710   32.2683    H 1 <0>  0.3999
  32  H12       16.0214    4.6162   27.2079    H 1 <0>  0.3999
@<TRIPOS>BOND
    1     1     2  1
    2     1     3  1
    3     2    11  1
    4     3    10  1
    5     3    12  1
    6     4    10  1
    7     4    11  1
    8     4    15  1
    9     5     6  1
   10     5     8  1
   11     6     7  1
   12     6    18  1
   13     7     9  1
   14     7    17  1
   15     8    11  1
   16     8    17  1
   17     9    19  1
   18    13    20  1
   19    14    20  1
   20    16    20  1
   21    19    20  1
   22     1    21  1
   23     2    22  1
   24     5    23  1
   25     5    24  1
   26     6    25  1
   27     7    26  1
   28     8    27  1
   29     9    28  1
   30     9    29  1
   31    12    30  1
   32    12    31  1
   33    18    32  1

@<TRIPOS>MOLECULE
MOL
   32   33    0    0    0
SMALL
USER_CHARGES


@<TRIPOS>ATOM
   1   C1       18.0432   -1.9849   29.3900  C.2 1 <0> -0.1356
   2   C2       17.5748   -0.8452   28.8856  C.2 1 <0> -0.0410
   3   C3       17.7400   -2.2470   30.8212  C.2 1 <0>  0.4856
   4   C4       16.5724   -0.2222   30.9981  C.2 1 <0>  0.8408
   5   C5       17.4018    2.3857   29.0586  C.3 1 <0>  0.0000
   6   C6       17.1428    3.1246   27.7660  C.3 1 <0>  0.2800
   7   C7       16.7283    2.0138   26.8111  C.3 1 <0>  0.2800
   8   C8       16.3808    1.2610   29.0047  C.3 1 <0>  0.5801
   9   C9       17.9106    1.3823   26.0876  C.3 1 <0>  0.2800
  10   N1       17.0506   -1.4021   31.5421  N.2 1 <0> -0.6611
  11   N2       16.8429    0.0598   29.6365 N.am 1 <0> -0.4690
  12   N3       18.2058   -3.4139   31.3811 N.pl3 1 <0> -0.8501
  13   O1       18.7676   -2.3524   26.1510  O.3 1 <0> -1.0332
  14   O2       20.3972   -0.3812   26.2318  O.3 1 <0> -1.0332
  15   O3       15.9248    0.5629   31.6929  O.2 1 <0> -0.5698
  16   O4       18.9314   -0.7527   24.1606  O.2 1 <0> -1.0332
  17   O5       16.1096    0.9956   27.6212  O.3 1 <0> -0.5601
  18   O6       16.0637    4.0397   27.9436  O.3 1 <0> -0.6802
  19   O7       17.9091   -0.0135   26.3390  O.3 1 <0> -0.5513
  20   P1       19.0969   -0.9440   25.6653  P.3 1 <0>  1.3711
  21   H1       18.6152   -2.6970   28.8103    H 1 <0>  0.1500
  22   H2       17.7497   -0.5757   27.8499    H 1 <0>  0.1500
  23   H3       18.4386    2.0452   29.1584    H 1 <0>  0.0000
  24   H4       17.1962    3.0460   29.9120    H 1 <0>  0.0000
  25   H5       18.0183    3.6652   27.4347    H 1 <0>  0.0000
  26   H6       16.0039    2.3583   26.0811    H 1 <0>  0.0000
  27   H7       15.4408    1.5497   29.5068    H 1 <0>  0.0000
  28   H8       18.8490    1.8078   26.4511    H 1 <0>  0.0000
  29   H9       17.8303    1.5497   25.0110    H 1 <0>  0.0000
  30  H10       18.7251   -4.0320   30.8055    H 1 <0>  0.3999
  31  H11       18.0024   -3.5865   32.3359    H 1 <0>  0.3999
  32  H12       16.0026    4.6154   27.1779    H 1 <0>  0.3999
@<TRIPOS>BOND
    1     1     2  1
    2     1     3  1
    3     2    11  1
    4     3    10  1
    5     3    12  1
    6     4    10  1
    7     4    11  1
    8     4    15  1
    9     5     6  1
   10     5     8  1
   11     6     7  1
   12     6    18  1
   13     7     9  1
   14     7    17  1
   15     8    11  1
   16     8    17  1
   17     9    19  1
   18    13    20  1
   19    14    20  1
   20    16    20  1
   21    19    20  1
   22     1    21  1
   23     2    22  1
   24     5    23  1
   25     5    24  1
   26     6    25  1
   27     7    26  1
   28     8    27  1
   29     9    28  1
   30     9    29  1
   31    12    30  1
   32    12    31  1
   33    18    32  1

@<TRIPOS>MOLECULE
MOL
   32   33    0    0    0
SMALL
USER_CHARGES


@<TRIPOS>ATOM
   1   C1       18.0950   -1.9386   29.4342  C.2 1 <0> -0.1356
   2   C2       17.6135   -0.8097   28.9178  C.2 1 <0> -0.0410
   3   C3       17.8043   -2.1837   30.8709  C.2 1 <0>  0.4856
   4   C4       16.6212   -0.1664   31.0290  C.2 1 <0>  0.8408
   5   C5       17.4148    2.4218   29.0484  C.3 1 <0>  0.0000
   6   C6       17.1404    3.1409   27.7478  C.3 1 <0>  0.2800
   7   C7       16.7283    2.0138   26.8111  C.3 1 <0>  0.2800
   8   C8       16.4029    1.2881   29.0172  C.3 1 <0>  0.5801
   9   C9       17.9106    1.3823   26.0876  C.3 1 <0>  0.2800
  10   N1       17.1131   -1.3347   31.5853  N.2 1 <0> -0.6611
  11   N2       16.8795    0.0994   29.6617 N.am 1 <0> -0.4690
  12   N3       18.2838   -3.3390   31.4431 N.pl3 1 <0> -0.8501
  13   O1       18.7676   -2.3524   26.1510  O.3 1 <0> -1.0332
  14   O2       20.3972   -0.3812   26.2318  O.3 1 <0> -1.0332
  15   O3       15.9720    0.6228   31.7177  O.2 1 <0> -0.5698
  16   O4       18.9314   -0.7527   24.1606  O.2 1 <0> -1.0332
  17   O5       16.1240    1.0017   27.6393  O.3 1 <0> -0.5601
  18   O6       16.0550    4.0493   27.9209  O.3 1 <0> -0.6802
  19   O7       17.9091   -0.0135   26.3390  O.3 1 <0> -0.5513
  20   P1       19.0969   -0.9440   25.6653  P.3 1 <0>  1.3711
  21   H1       18.6687   -2.6537   28.8600    H 1 <0>  0.1500
  22   H2       17.7787   -0.5529   27.8773    H 1 <0>  0.1500
  23   H3       18.4551    2.0912   29.1453    H 1 <0>  0.0000
  24   H4       17.2099    3.0918   29.8942    H 1 <0>  0.0000
  25   H5       18.0089    3.6841   27.4029    H 1 <0>  0.0000
  26   H6       15.9958    2.3424   26.0819    H 1 <0>  0.0000
  27   H7       15.4641    1.5758   29.5221    H 1 <0>  0.0000
  28   H8       18.8490    1.8078   26.4511    H 1 <0>  0.0000
  29   H9       17.8303    1.5497   25.0110    H 1 <0>  0.0000
  30  H10       18.8041   -3.9605   30.8722    H 1 <0>  0.3999
  31  H11       18.0886   -3.5002   32.4016    H 1 <0>  0.3999
  32  H12       15.9835    4.6141   27.1479    H 1 <0>  0.3999
@<TRIPOS>BOND
    1     1     2  1
    2     1     3  1
    3     2    11  1
    4     3    10  1
    5     3    12  1
    6     4    10  1
    7     4    11  1
    8     4    15  1
    9     5     6  1
   10     5     8  1
   11     6     7  1
   12     6    18  1
   13     7     9  1
   14     7    17  1
   15     8    11  1
   16     8    17  1
   17     9    19  1
   18    13    20  1
   19    14    20  1
   20    16    20  1
   21    19    20  1
   22     1    21  1
   23     2    22  1
   24     5    23  1
   25     5    24  1
   26     6    25  1
   27     7    26  1
   28     8    27  1
   29     9    28  1
   30     9    29  1
   31    12    30  1
   32    12    31  1
   33    18    32  1

@<TRIPOS>MOLECULE
MOL
   32   33    0    0    0
SMALL
USER_CHARGES


@<TRIPOS>ATOM
   1   C1       18.1467   -1.8912   29.4773  C.2 1 <0> -0.1356
   2   C2       17.6521   -0.7735   28.9493  C.2 1 <0> -0.0410
   3   C3       17.8683   -2.1192   30.9193  C.2 1 <0>  0.4856
   4   C4       16.6696   -0.1097   31.0587  C.2 1 <0>  0.8408
   5   C5       17.4274    2.4577   29.0376  C.3 1 <0>  0.0000
   6   C6       17.1377    3.1569   27.7295  C.3 1 <0>  0.2800
   7   C7       16.7283    2.0138   26.8111  C.3 1 <0>  0.2800
   8   C8       16.4248    1.3154   29.0291  C.3 1 <0>  0.5801
   9   C9       17.9106    1.3823   26.0876  C.3 1 <0>  0.2800
  10   N1       17.1752   -1.2663   31.6272  N.2 1 <0> -0.6611
  11   N2       16.9159    0.1396   29.6862 N.am 1 <0> -0.4690
  12   N3       18.3616   -3.2626   31.5036 N.pl3 1 <0> -0.8501
  13   O1       18.7676   -2.3524   26.1510  O.3 1 <0> -1.0332
  14   O2       20.3972   -0.3812   26.2318  O.3 1 <0> -1.0332
  15   O3       16.0189    0.6833   31.7415  O.2 1 <0> -0.5698
  16   O4       18.9314   -0.7527   24.1606  O.2 1 <0> -1.0332
  17   O5       16.1384    1.0081   27.6573  O.3 1 <0> -0.5601
  18   O6       16.0460    4.0586   27.8982  O.3 1 <0> -0.6802
  19   O7       17.9091   -0.0135   26.3390  O.3 1 <0> -0.5513
  20   P1       19.0969   -0.9440   25.6653  P.3 1 <0>  1.3711
  21   H1       18.7222   -2.6093   28.9087    H 1 <0>  0.1500
  22   H2       17.8077   -0.5294   27.9042    H 1 <0>  0.1500
  23   H3       18.4711    2.1371   29.1314    H 1 <0>  0.0000
  24   H4       17.2230    3.1375   29.8758    H 1 <0>  0.0000
  25   H5       17.9992    3.7024   27.3710    H 1 <0>  0.0000
  26   H6       15.9879    2.3264   26.0828    H 1 <0>  0.0000
  27   H7       15.4873    1.6022   29.5369    H 1 <0>  0.0000
  28   H8       18.8490    1.8078   26.4511    H 1 <0>  0.0000
  29   H9       17.8303    1.5497   25.0110    H 1 <0>  0.0000
  30  H10       18.8829   -3.8875   30.9374    H 1 <0>  0.3999
  31  H11       18.1747   -3.4124   32.4656    H 1 <0>  0.3999
  32  H12       15.9643    4.6122   27.1182    H 1 <0>  0.3999
@<TRIPOS>BOND
    1     1     2  1
    2     1     3  1
    3     2    11  1
    4     3    10  1
    5     3    12  1
    6     4    10  1
    7     4    11  1
    8     4    15  1
    9     5     6  1
   10     5     8  1
   11     6     7  1
   12     6    18  1
   13     7     9  1
   14     7    17  1
   15     8    11  1
   16     8    17  1
   17     9    19  1
   18    13    20  1
   19    14    20  1
   20    16    20  1
   21    19    20  1
   22     1    21  1
   23     2    22  1
   24     5    23  1
   25     5    24  1
   26     6    25  1
   27     7    26  1
   28     8    27  1
   29     9    28  1
   30     9    29  1
   31    12    30  1
   32    12    31  1
   33    18    32  1

@<TRIPOS>MOLECULE
MOL
   32   33    0    0    0
SMALL
USER_CHARGES


@<TRIPOS>ATOM
   1   C1       18.1983   -1.8428   29.5195  C.2 1 <0> -0.1356
   2   C2       17.6906   -0.7365   28.9799  C.2 1 <0> -0.0410
   3   C3       17.9322   -2.0535   30.9664  C.2 1 <0>  0.4856
   4   C4       16.7178   -0.0523   31.0874  C.2 1 <0>  0.8408
   5   C5       17.4397    2.4937   29.0262  C.3 1 <0>  0.0000
   6   C6       17.1347    3.1726   27.7109  C.3 1 <0>  0.2800
   7   C7       16.7283    2.0138   26.8111  C.3 1 <0>  0.2800
   8   C8       16.4466    1.3431   29.0405  C.3 1 <0>  0.5801
   9   C9       17.9106    1.3823   26.0876  C.3 1 <0>  0.2800
  10   N1       17.2371   -1.1968   31.6677  N.2 1 <0> -0.6611
  11   N2       16.9522    0.1804   29.7098 N.am 1 <0> -0.4690
  12   N3       18.4392   -3.1848   31.5624 N.pl3 1 <0> -0.8501
  13   O1       18.7676   -2.3524   26.1510  O.3 1 <0> -1.0332
  14   O2       20.3972   -0.3812   26.2318  O.3 1 <0> -1.0332
  15   O3       16.0654    0.7446   31.7641  O.2 1 <0> -0.5698
  16   O4       18.9314   -0.7527   24.1606  O.2 1 <0> -1.0332
  17   O5       16.1529    1.0148   27.6751  O.3 1 <0> -0.5601
  18   O6       16.0368    4.0674   27.8754  O.3 1 <0> -0.6802
  19   O7       17.9091   -0.0135   26.3390  O.3 1 <0> -0.5513
  20   P1       19.0969   -0.9440   25.6653  P.3 1 <0>  1.3711
  21   H1       18.7757   -2.5638   28.9564    H 1 <0>  0.1500
  22   H2       17.8367   -0.5054   27.9306    H 1 <0>  0.1500
  23   H3       18.4866    2.1829   29.1167    H 1 <0>  0.0000
  24   H4       17.2356    3.1830   29.8566    H 1 <0>  0.0000
  25   H5       17.9890    3.7203   27.3388    H 1 <0>  0.0000
  26   H6       15.9801    2.3104   26.0841    H 1 <0>  0.0000
  27   H7       15.5103    1.6291   29.5512    H 1 <0>  0.0000
  28   H8       18.8490    1.8078   26.4511    H 1 <0>  0.0000
  29   H9       17.8303    1.5497   25.0110    H 1 <0>  0.0000
  30  H10       18.9616   -3.8130   31.0009    H 1 <0>  0.3999
  31  H11       18.2604   -3.3231   32.5277    H 1 <0>  0.3999
  32  H12       15.9449    4.6097   27.0886    H 1 <0>  0.3999
@<TRIPOS>BOND
    1     1     2  1
    2     1     3  1
    3     2    11  1
    4     3    10  1
    5     3    12  1
    6     4    10  1
    7     4    11  1
    8     4    15  1
    9     5     6  1
   10     5     8  1
   11     6     7  1
   12     6    18  1
   13     7     9  1
   14     7    17  1
   15     8    11  1
   16     8    17  1
   17     9    19  1
   18    13    20  1
   19    14    20  1
   20    16    20  1
   21    19    20  1
   22     1    21  1
   23     2    22  1
   24     5    23  1
   25     5    24  1
   26     6    25  1
   27     7    26  1
   28     8    27  1
   29     9    28  1
   30     9    29  1
   31    12    30  1
   32    12    31  1
   33    18    32  1

@<TRIPOS>MOLECULE
MOL
   32   33    0    0    0
SMALL
USER_CHARGES


@<TRIPOS>ATOM
   1   C1       18.2498   -1.7934   29.5606  C.2 1 <0> -0.1356
   2   C2       17.7291   -0.6987   29.0098  C.2 1 <0> -0.0410
   3   C3       17.9959   -1.9866   31.0121  C.2 1 <0>  0.4856
   4   C4       16.7658    0.0060   31.1149  C.2 1 <0>  0.8408
   5   C5       17.4515    2.5295   29.0143  C.3 1 <0>  0.0000
   6   C6       17.1315    3.1880   27.6922  C.3 1 <0>  0.2800
   7   C7       16.7283    2.0138   26.8111  C.3 1 <0>  0.2800
   8   C8       16.4682    1.3711   29.0513  C.3 1 <0>  0.5801
   9   C9       17.9106    1.3823   26.0876  C.3 1 <0>  0.2800
  10   N1       17.2987   -1.1263   31.7069  N.2 1 <0> -0.6611
  11   N2       16.9882    0.2218   29.7326 N.am 1 <0> -0.4690
  12   N3       18.5166   -3.1055   31.6197 N.pl3 1 <0> -0.8501
  13   O1       18.7676   -2.3524   26.1510  O.3 1 <0> -1.0332
  14   O2       20.3972   -0.3812   26.2318  O.3 1 <0> -1.0332
  15   O3       16.1116    0.8065   31.7855  O.2 1 <0> -0.5698
  16   O4       18.9314   -0.7527   24.1606  O.2 1 <0> -1.0332
  17   O5       16.1674    1.0219   27.6927  O.3 1 <0> -0.5601
  18   O6       16.0274    4.0759   27.8526  O.3 1 <0> -0.6802
  19   O7       17.9091   -0.0135   26.3390  O.3 1 <0> -0.5513
  20   P1       19.0969   -0.9440   25.6653  P.3 1 <0>  1.3711
  21   H1       18.8292   -2.5172   29.0031    H 1 <0>  0.1500
  22   H2       17.8656   -0.4807   27.9564    H 1 <0>  0.1500
  23   H3       18.5016    2.2287   29.1013    H 1 <0>  0.0000
  24   H4       17.2477    3.2284   29.8368    H 1 <0>  0.0000
  25   H5       17.9785    3.7376   27.3065    H 1 <0>  0.0000
  26   H6       15.9724    2.2943   26.0856    H 1 <0>  0.0000
  27   H7       15.5333    1.6563   29.5650    H 1 <0>  0.0000
  28   H8       18.8490    1.8078   26.4511    H 1 <0>  0.0000
  29   H9       17.8303    1.5497   25.0110    H 1 <0>  0.0000
  30  H10       19.0402   -3.7370   31.0629    H 1 <0>  0.3999
  31  H11       18.3459   -3.2321   32.5880    H 1 <0>  0.3999
  32  H12       15.9253    4.6067   27.0592    H 1 <0>  0.3999
@<TRIPOS>BOND
    1     1     2  1
    2     1     3  1
    3     2    11  1
    4     3    10  1
    5     3    12  1
    6     4    10  1
    7     4    11  1
    8     4    15  1
    9     5     6  1
   10     5     8  1
   11     6     7  1
   12     6    18  1
   13     7     9  1
   14     7    17  1
   15     8    11  1
   16     8    17  1
   17     9    19  1
   18    13    20  1
   19    14    20  1
   20    16    20  1
   21    19    20  1
   22     1    21  1
   23     2    22  1
   24     5    23  1
   25     5    24  1
   26     6    25  1
   27     7    26  1
   28     8    27  1
   29     9    28  1
   30     9    29  1
   31    12    30  1
   32    12    31  1
   33    18    32  1

@<TRIPOS>MOLECULE
MOL
   32   33    0    0    0
SMALL
USER_CHARGES


@<TRIPOS>ATOM
   1   C1       18.3012   -1.7431   29.6006  C.2 1 <0> -0.1356
   2   C2       17.7674   -0.6603   29.0389  C.2 1 <0> -0.0410
   3   C3       18.0594   -1.9186   31.0564  C.2 1 <0>  0.4856
   4   C4       16.8134    0.0649   31.1412  C.2 1 <0>  0.8408
   5   C5       17.4630    2.5653   29.0018  C.3 1 <0>  0.0000
   6   C6       17.1280    3.2031   27.6733  C.3 1 <0>  0.2800
   7   C7       16.7283    2.0138   26.8111  C.3 1 <0>  0.2800
   8   C8       16.4896    1.3995   29.0616  C.3 1 <0>  0.5801
   9   C9       17.9106    1.3823   26.0876  C.3 1 <0>  0.2800
  10   N1       17.3600   -1.0547   31.7446  N.2 1 <0> -0.6611
  11   N2       17.0241    0.2639   29.7546 N.am 1 <0> -0.4690
  12   N3       18.5937   -3.0249   31.6753 N.pl3 1 <0> -0.8501
  13   O1       18.7676   -2.3524   26.1510  O.3 1 <0> -1.0332
  14   O2       20.3972   -0.3812   26.2318  O.3 1 <0> -1.0332
  15   O3       16.1574    0.8691   31.8057  O.2 1 <0> -0.5698
  16   O4       18.9314   -0.7527   24.1606  O.2 1 <0> -1.0332
  17   O5       16.1821    1.0294   27.7101  O.3 1 <0> -0.5601
  18   O6       16.0177    4.0840   27.8297  O.3 1 <0> -0.6802
  19   O7       17.9091   -0.0135   26.3390  O.3 1 <0> -0.5513
  20   P1       19.0969   -0.9440   25.6653  P.3 1 <0>  1.3711
  21   H1       18.8826   -2.4696   29.0488    H 1 <0>  0.1500
  22   H2       17.8946   -0.4555   27.9817    H 1 <0>  0.1500
  23   H3       18.5162    2.2744   29.0852    H 1 <0>  0.0000
  24   H4       17.2592    3.2736   29.8162    H 1 <0>  0.0000
  25   H5       17.9676    3.7544   27.2740    H 1 <0>  0.0000
  26   H6       15.9649    2.2782   26.0874    H 1 <0>  0.0000
  27   H7       15.5561    1.6839   29.5782    H 1 <0>  0.0000
  28   H8       18.8490    1.8078   26.4511    H 1 <0>  0.0000
  29   H9       17.8303    1.5497   25.0110    H 1 <0>  0.0000
  30  H10       19.1185   -3.6595   31.1233    H 1 <0>  0.3999
  31  H11       18.4310   -3.1397   32.6464    H 1 <0>  0.3999
  32  H12       15.9055    4.6032   27.0300    H 1 <0>  0.3999
@<TRIPOS>BOND
    1     1     2  1
    2     1     3  1
    3     2    11  1
    4     3    10  1
    5     3    12  1
    6     4    10  1
    7     4    11  1
    8     4    15  1
    9     5     6  1
   10     5     8  1
   11     6     7  1
   12     6    18  1
   13     7     9  1
   14     7    17  1
   15     8    11  1
   16     8    17  1
   17     9    19  1
   18    13    20  1
   19    14    20  1
   20    16    20  1
   21    19    20  1
   22     1    21  1
   23     2    22  1
   24     5    23  1
   25     5    24  1
   26     6    25  1
   27     7    26  1
   28     8    27  1
   29     9    28  1
   30     9    29  1
   31    12    30  1
   32    12    31  1
   33    18    32  1

@<TRIPOS>MOLECULE
MOL
   32   33    0    0    0
SMALL
USER_CHARGES


@<TRIPOS>ATOM
   1   C1       18.3525   -1.6918   29.6396  C.2 1 <0> -0.1356
   2   C2       17.8057   -0.6211   29.0673  C.2 1 <0> -0.0410
   3   C3       18.1225   -1.8495   31.0994  C.2 1 <0>  0.4856
   4   C4       16.8607    0.1247   31.1664  C.2 1 <0>  0.8408
   5   C5       17.4741    2.6011   28.9887  C.3 1 <0>  0.0000
   6   C6       17.1242    3.2180   27.6542  C.3 1 <0>  0.2800
   7   C7       16.7283    2.0138   26.8111  C.3 1 <0>  0.2800
   8   C8       16.5109    1.4282   29.0714  C.3 1 <0>  0.5801
   9   C9       17.9106    1.3823   26.0876  C.3 1 <0>  0.2800
  10   N1       17.4210   -0.9822   31.7808  N.2 1 <0> -0.6611
  11   N2       17.0598    0.3065   29.7757 N.am 1 <0> -0.4690
  12   N3       18.6705   -2.9428   31.7292 N.pl3 1 <0> -0.8501
  13   O1       18.7676   -2.3524   26.1510  O.3 1 <0> -1.0332
  14   O2       20.3972   -0.3812   26.2318  O.3 1 <0> -1.0332
  15   O3       16.2028    0.9324   31.8247  O.2 1 <0> -0.5698
  16   O4       18.9314   -0.7527   24.1606  O.2 1 <0> -1.0332
  17   O5       16.1968    1.0372   27.7273  O.3 1 <0> -0.5601
  18   O6       16.0078    4.0917   27.8068  O.3 1 <0> -0.6802
  19   O7       17.9091   -0.0135   26.3390  O.3 1 <0> -0.5513
  20   P1       19.0969   -0.9440   25.6653  P.3 1 <0>  1.3711
  21   H1       18.9359   -2.4209   29.0934    H 1 <0>  0.1500
  22   H2       17.9235   -0.4297   28.0065    H 1 <0>  0.1500
  23   H3       18.5302    2.3200   29.0684    H 1 <0>  0.0000
  24   H4       17.2703    3.3186   29.7950    H 1 <0>  0.0000
  25   H5       17.9564    3.7707   27.2414    H 1 <0>  0.0000
  26   H6       15.9576    2.2621   26.0895    H 1 <0>  0.0000
  27   H7       15.5788    1.7118   29.5909    H 1 <0>  0.0000
  28   H8       18.8490    1.8078   26.4511    H 1 <0>  0.0000
  29   H9       17.8303    1.5497   25.0110    H 1 <0>  0.0000
  30  H10       19.1966   -3.5805   31.1820    H 1 <0>  0.3999
  31  H11       18.5158   -3.0458   32.7030    H 1 <0>  0.3999
  32  H12       15.8855    4.5990   27.0009    H 1 <0>  0.3999
@<TRIPOS>BOND
    1     1     2  1
    2     1     3  1
    3     2    11  1
    4     3    10  1
    5     3    12  1
    6     4    10  1
    7     4    11  1
    8     4    15  1
    9     5     6  1
   10     5     8  1
   11     6     7  1
   12     6    18  1
   13     7     9  1
   14     7    17  1
   15     8    11  1
   16     8    17  1
   17     9    19  1
   18    13    20  1
   19    14    20  1
   20    16    20  1
   21    19    20  1
   22     1    21  1
   23     2    22  1
   24     5    23  1
   25     5    24  1
   26     6    25  1
   27     7    26  1
   28     8    27  1
   29     9    28  1
   30     9    29  1
   31    12    30  1
   32    12    31  1
   33    18    32  1

@<TRIPOS>MOLECULE
MOL
   32   33    0    0    0
SMALL
USER_CHARGES


@<TRIPOS>ATOM
   1   C1       18.4036   -1.6395   29.6775  C.2 1 <0> -0.1356
   2   C2       17.8438   -0.5813   29.0947  C.2 1 <0> -0.0410
   3   C3       18.1855   -1.7793   31.1409  C.2 1 <0>  0.4856
   4   C4       16.9078    0.1851   31.1905  C.2 1 <0>  0.8408
   5   C5       17.4848    2.6367   28.9751  C.3 1 <0>  0.0000
   6   C6       17.1202    3.2325   27.6349  C.3 1 <0>  0.2800
   7   C7       16.7283    2.0138   26.8111  C.3 1 <0>  0.2800
   8   C8       16.5321    1.4571   29.0807  C.3 1 <0>  0.5801
   9   C9       17.9106    1.3823   26.0876  C.3 1 <0>  0.2800
  10   N1       17.4816   -0.9086   31.8157  N.2 1 <0> -0.6611
  11   N2       17.0953    0.3497   29.7960 N.am 1 <0> -0.4690
  12   N3       18.7470   -2.8594   31.7815 N.pl3 1 <0> -0.8501
  13   O1       18.7676   -2.3524   26.1510  O.3 1 <0> -1.0332
  14   O2       20.3972   -0.3812   26.2318  O.3 1 <0> -1.0332
  15   O3       16.2479    0.9963   31.8426  O.2 1 <0> -0.5698
  16   O4       18.9314   -0.7527   24.1606  O.2 1 <0> -1.0332
  17   O5       16.2115    1.0454   27.7443  O.3 1 <0> -0.5601
  18   O6       15.9977    4.0991   27.7838  O.3 1 <0> -0.6802
  19   O7       17.9091   -0.0135   26.3390  O.3 1 <0> -0.5513
  20   P1       19.0969   -0.9440   25.6653  P.3 1 <0>  1.3711
  21   H1       18.9891   -2.3712   29.1370    H 1 <0>  0.1500
  22   H2       17.9524   -0.4033   28.0306    H 1 <0>  0.1500
  23   H3       18.5438    2.3654   29.0509    H 1 <0>  0.0000
  24   H4       17.2808    3.3634   29.7730    H 1 <0>  0.0000
  25   H5       17.9447    3.7865   27.2086    H 1 <0>  0.0000
  26   H6       15.9504    2.2459   26.0919    H 1 <0>  0.0000
  27   H7       15.6013    1.7401   29.6030    H 1 <0>  0.0000
  28   H8       18.8490    1.8078   26.4511    H 1 <0>  0.0000
  29   H9       17.8303    1.5497   25.0110    H 1 <0>  0.0000
  30  H10       19.2745   -3.5001   31.2391    H 1 <0>  0.3999
  31  H11       18.6002   -2.9505   32.7576    H 1 <0>  0.3999
  32  H12       15.8654    4.5943   26.9721    H 1 <0>  0.3999
@<TRIPOS>BOND
    1     1     2  1
    2     1     3  1
    3     2    11  1
    4     3    10  1
    5     3    12  1
    6     4    10  1
    7     4    11  1
    8     4    15  1
    9     5     6  1
   10     5     8  1
   11     6     7  1
   12     6    18  1
   13     7     9  1
   14     7    17  1
   15     8    11  1
   16     8    17  1
   17     9    19  1
   18    13    20  1
   19    14    20  1
   20    16    20  1
   21    19    20  1
   22     1    21  1
   23     2    22  1
   24     5    23  1
   25     5    24  1
   26     6    25  1
   27     7    26  1
   28     8    27  1
   29     9    28  1
   30     9    29  1
   31    12    30  1
   32    12    31  1
   33    18    32  1

@<TRIPOS>MOLECULE
MOL
   32   33    0    0    0
SMALL
USER_CHARGES


@<TRIPOS>ATOM
   1   C1       18.4546   -1.5863   29.7143  C.2 1 <0> -0.1356
   2   C2       17.8817   -0.5408   29.1214  C.2 1 <0> -0.0410
   3   C3       18.2481   -1.7081   31.1811  C.2 1 <0>  0.4856
   4   C4       16.9544    0.2463   31.2134  C.2 1 <0>  0.8408
   5   C5       17.4951    2.6722   28.9609  C.3 1 <0>  0.0000
   6   C6       17.1159    3.2468   27.6155  C.3 1 <0>  0.2800
   7   C7       16.7283    2.0138   26.8111  C.3 1 <0>  0.2800
   8   C8       16.5530    1.4864   29.0893  C.3 1 <0>  0.5801
   9   C9       17.9106    1.3823   26.0876  C.3 1 <0>  0.2800
  10   N1       17.5419   -0.8341   31.8491  N.2 1 <0> -0.6611
  11   N2       17.1306    0.3934   29.8155 N.am 1 <0> -0.4690
  12   N3       18.8232   -2.7747   31.8320 N.pl3 1 <0> -0.8501
  13   O1       18.7676   -2.3524   26.1510  O.3 1 <0> -1.0332
  14   O2       20.3972   -0.3812   26.2318  O.3 1 <0> -1.0332
  15   O3       16.2925    1.0607   31.8593  O.2 1 <0> -0.5698
  16   O4       18.9314   -0.7527   24.1606  O.2 1 <0> -1.0332
  17   O5       16.2263    1.0539   27.7610  O.3 1 <0> -0.5601
  18   O6       15.9873    4.1060   27.7609  O.3 1 <0> -0.6802
  19   O7       17.9091   -0.0135   26.3390  O.3 1 <0> -0.5513
  20   P1       19.0969   -0.9440   25.6653  P.3 1 <0>  1.3711
  21   H1       19.0422   -2.3204   29.1795    H 1 <0>  0.1500
  22   H2       17.9812   -0.3764   28.0542    H 1 <0>  0.1500
  23   H3       18.5568    2.4107   29.0326    H 1 <0>  0.0000
  24   H4       17.2908    3.4080   29.7504    H 1 <0>  0.0000
  25   H5       17.9327    3.8017   27.1758    H 1 <0>  0.0000
  26   H6       15.9433    2.2297   26.0945    H 1 <0>  0.0000
  27   H7       15.6237    1.7688   29.6146    H 1 <0>  0.0000
  28   H8       18.8490    1.8078   26.4511    H 1 <0>  0.0000
  29   H9       17.8303    1.5497   25.0110    H 1 <0>  0.0000
  30  H10       19.3521   -3.4183   31.2946    H 1 <0>  0.3999
  31  H11       18.6841   -2.8537   32.8104    H 1 <0>  0.3999
  32  H12       15.8451    4.5891   26.9435    H 1 <0>  0.3999
@<TRIPOS>BOND
    1     1     2  1
    2     1     3  1
    3     2    11  1
    4     3    10  1
    5     3    12  1
    6     4    10  1
    7     4    11  1
    8     4    15  1
    9     5     6  1
   10     5     8  1
   11     6     7  1
   12     6    18  1
   13     7     9  1
   14     7    17  1
   15     8    11  1
   16     8    17  1
   17     9    19  1
   18    13    20  1
   19    14    20  1
   20    16    20  1
   21    19    20  1
   22     1    21  1
   23     2    22  1
   24     5    23  1
   25     5    24  1
   26     6    25  1
   27     7    26  1
   28     8    27  1
   29     9    28  1
   30     9    29  1
   31    12    30  1
   32    12    31  1
   33    18    32  1

@<TRIPOS>MOLECULE
MOL
   32   33    0    0    0
SMALL
USER_CHARGES


@<TRIPOS>ATOM
   1   C1       18.5053   -1.5323   29.7501  C.2 1 <0> -0.1356
   2   C2       17.9195   -0.4996   29.1473  C.2 1 <0> -0.0410
   3   C3       18.3104   -1.6358   31.2198  C.2 1 <0>  0.4856
   4   C4       17.0008    0.3082   31.2351  C.2 1 <0>  0.8408
   5   C5       17.5050    2.7077   28.9462  C.3 1 <0>  0.0000
   6   C6       17.1114    3.2607   27.5959  C.3 1 <0>  0.2800
   7   C7       16.7283    2.0138   26.8111  C.3 1 <0>  0.2800
   8   C8       16.5738    1.5159   29.0975  C.3 1 <0>  0.5801
   9   C9       17.9106    1.3823   26.0876  C.3 1 <0>  0.2800
  10   N1       17.6018   -0.7586   31.8811  N.2 1 <0> -0.6611
  11   N2       17.1657    0.4377   29.8341 N.am 1 <0> -0.4690
  12   N3       18.8991   -2.6886   31.8809 N.pl3 1 <0> -0.8501
  13   O1       18.7676   -2.3524   26.1510  O.3 1 <0> -1.0332
  14   O2       20.3972   -0.3812   26.2318  O.3 1 <0> -1.0332
  15   O3       16.3367    1.1258   31.8747  O.2 1 <0> -0.5698
  16   O4       18.9314   -0.7527   24.1606  O.2 1 <0> -1.0332
  17   O5       16.2412    1.0628   27.7775  O.3 1 <0> -0.5601
  18   O6       15.9767    4.1125   27.7379  O.3 1 <0> -0.6802
  19   O7       17.9091   -0.0135   26.3390  O.3 1 <0> -0.5513
  20   P1       19.0969   -0.9440   25.6653  P.3 1 <0>  1.3711
  21   H1       19.0953   -2.2686   29.2209    H 1 <0>  0.1500
  22   H2       18.0100   -0.3488   28.0772    H 1 <0>  0.1500
  23   H3       18.5693    2.4559   29.0136    H 1 <0>  0.0000
  24   H4       17.3002    3.4524   29.7271    H 1 <0>  0.0000
  25   H5       17.9204    3.8163   27.1428    H 1 <0>  0.0000
  26   H6       15.9364    2.2134   26.0974    H 1 <0>  0.0000
  27   H7       15.6460    1.7978   29.6257    H 1 <0>  0.0000
  28   H8       18.8490    1.8078   26.4511    H 1 <0>  0.0000
  29   H9       17.8303    1.5497   25.0110    H 1 <0>  0.0000
  30  H10       19.4295   -3.3351   31.3483    H 1 <0>  0.3999
  31  H11       18.7677   -2.7555   32.8612    H 1 <0>  0.3999
  32  H12       15.8246    4.5833   26.9151    H 1 <0>  0.3999
@<TRIPOS>BOND
    1     1     2  1
    2     1     3  1
    3     2    11  1
    4     3    10  1
    5     3    12  1
    6     4    10  1
    7     4    11  1
    8     4    15  1
    9     5     6  1
   10     5     8  1
   11     6     7  1
   12     6    18  1
   13     7     9  1
   14     7    17  1
   15     8    11  1
   16     8    17  1
   17     9    19  1
   18    13    20  1
   19    14    20  1
   20    16    20  1
   21    19    20  1
   22     1    21  1
   23     2    22  1
   24     5    23  1
   25     5    24  1
   26     6    25  1
   27     7    26  1
   28     8    27  1
   29     9    28  1
   30     9    29  1
   31    12    30  1
   32    12    31  1
   33    18    32  1

@<TRIPOS>MOLECULE
MOL
   32   33    0    0    0
SMALL
USER_CHARGES


@<TRIPOS>ATOM
   1   C1       18.5559   -1.4773   29.7847  C.2 1 <0> -0.1356
   2   C2       17.9572   -0.4577   29.1723  C.2 1 <0> -0.0410
   3   C3       18.3724   -1.5624   31.2570  C.2 1 <0>  0.4856
   4   C4       17.0467    0.3707   31.2557  C.2 1 <0>  0.8408
   5   C5       17.5145    2.7430   28.9309  C.3 1 <0>  0.0000
   6   C6       17.1066    3.2744   27.5762  C.3 1 <0>  0.2800
   7   C7       16.7283    2.0138   26.8111  C.3 1 <0>  0.2800
   8   C8       16.5943    1.5458   29.1051  C.3 1 <0>  0.5801
   9   C9       17.9106    1.3823   26.0876  C.3 1 <0>  0.2800
  10   N1       17.6612   -0.6822   31.9116  N.2 1 <0> -0.6611
  11   N2       17.2005    0.4826   29.8519 N.am 1 <0> -0.4690
  12   N3       18.9745   -2.6013   31.9280 N.pl3 1 <0> -0.8501
  13   O1       18.7676   -2.3524   26.1510  O.3 1 <0> -1.0332
  14   O2       20.3972   -0.3812   26.2318  O.3 1 <0> -1.0332
  15   O3       16.3805    1.1914   31.8890  O.2 1 <0> -0.5698
  16   O4       18.9314   -0.7527   24.1606  O.2 1 <0> -1.0332
  17   O5       16.2561    1.0721   27.7938  O.3 1 <0> -0.5601
  18   O6       15.9659    4.1186   27.7149  O.3 1 <0> -0.6802
  19   O7       17.9091   -0.0135   26.3390  O.3 1 <0> -0.5513
  20   P1       19.0969   -0.9440   25.6653  P.3 1 <0>  1.3711
  21   H1       19.1481   -2.2159   29.2612    H 1 <0>  0.1500
  22   H2       18.0387   -0.3208   28.0997    H 1 <0>  0.1500
  23   H3       18.5814    2.5009   28.9940    H 1 <0>  0.0000
  24   H4       17.3091    3.4965   29.7032    H 1 <0>  0.0000
  25   H5       17.9076    3.8304   27.1097    H 1 <0>  0.0000
  26   H6       15.9297    2.1972   26.1005    H 1 <0>  0.0000
  27   H7       15.6681    1.8271   29.6361    H 1 <0>  0.0000
  28   H8       18.8490    1.8078   26.4511    H 1 <0>  0.0000
  29   H9       17.8303    1.5497   25.0110    H 1 <0>  0.0000
  30  H10       19.5065   -3.2506   31.4004    H 1 <0>  0.3999
  31  H11       18.8508   -2.6559   32.9101    H 1 <0>  0.3999
  32  H12       15.8040    4.5769   26.8870    H 1 <0>  0.3999
@<TRIPOS>BOND
    1     1     2  1
    2     1     3  1
    3     2    11  1
    4     3    10  1
    5     3    12  1
    6     4    10  1
    7     4    11  1
    8     4    15  1
    9     5     6  1
   10     5     8  1
   11     6     7  1
   12     6    18  1
   13     7     9  1
   14     7    17  1
   15     8    11  1
   16     8    17  1
   17     9    19  1
   18    13    20  1
   19    14    20  1
   20    16    20  1
   21    19    20  1
   22     1    21  1
   23     2    22  1
   24     5    23  1
   25     5    24  1
   26     6    25  1
   27     7    26  1
   28     8    27  1
   29     9    28  1
   30     9    29  1
   31    12    30  1
   32    12    31  1
   33    18    32  1

@<TRIPOS>MOLECULE
MOL
   32   33    0    0    0
SMALL
USER_CHARGES


@<TRIPOS>ATOM
   1   C1       18.6062   -1.4214   29.8182  C.2 1 <0> -0.1356
   2   C2       17.9947   -0.4152   29.1964  C.2 1 <0> -0.0410
   3   C3       18.4340   -1.4880   31.2929  C.2 1 <0>  0.4856
   4   C4       17.0923    0.4339   31.2750  C.2 1 <0>  0.8408
   5   C5       17.5236    2.7781   28.9150  C.3 1 <0>  0.0000
   6   C6       17.1016    3.2877   27.5563  C.3 1 <0>  0.2800
   7   C7       16.7283    2.0138   26.8111  C.3 1 <0>  0.2800
   8   C8       16.6147    1.5759   29.1121  C.3 1 <0>  0.5801
   9   C9       17.9106    1.3823   26.0876  C.3 1 <0>  0.2800
  10   N1       17.7203   -0.6050   31.9406  N.2 1 <0> -0.6611
  11   N2       17.2351    0.5280   29.8688 N.am 1 <0> -0.4690
  12   N3       19.0496   -2.5128   31.9734 N.pl3 1 <0> -0.8501
  13   O1       18.7676   -2.3524   26.1510  O.3 1 <0> -1.0332
  14   O2       20.3972   -0.3812   26.2318  O.3 1 <0> -1.0332
  15   O3       16.4238    1.2576   31.9020  O.2 1 <0> -0.5698
  16   O4       18.9314   -0.7527   24.1606  O.2 1 <0> -1.0332
  17   O5       16.2710    1.0816   27.8099  O.3 1 <0> -0.5601
  18   O6       15.9549    4.1244   27.6919  O.3 1 <0> -0.6802
  19   O7       17.9091   -0.0135   26.3390  O.3 1 <0> -0.5513
  20   P1       19.0969   -0.9440   25.6653  P.3 1 <0>  1.3711
  21   H1       19.2008   -2.1621   29.3005    H 1 <0>  0.1500
  22   H2       18.0674   -0.2922   28.1215    H 1 <0>  0.1500
  23   H3       18.5929    2.5458   28.9736    H 1 <0>  0.0000
  24   H4       17.3175    3.5404   29.6785    H 1 <0>  0.0000
  25   H5       17.8946    3.8439   27.0765    H 1 <0>  0.0000
  26   H6       15.9231    2.1810   26.1040    H 1 <0>  0.0000
  27   H7       15.6900    1.8567   29.6461    H 1 <0>  0.0000
  28   H8       18.8490    1.8078   26.4511    H 1 <0>  0.0000
  29   H9       17.8303    1.5497   25.0110    H 1 <0>  0.0000
  30  H10       19.5832   -3.1647   31.4508    H 1 <0>  0.3999
  31  H11       18.9334   -2.5551   32.9570    H 1 <0>  0.3999
  32  H12       15.7832    4.5700   26.8591    H 1 <0>  0.3999
@<TRIPOS>BOND
    1     1     2  1
    2     1     3  1
    3     2    11  1
    4     3    10  1
    5     3    12  1
    6     4    10  1
    7     4    11  1
    8     4    15  1
    9     5     6  1
   10     5     8  1
   11     6     7  1
   12     6    18  1
   13     7     9  1
   14     7    17  1
   15     8    11  1
   16     8    17  1
   17     9    19  1
   18    13    20  1
   19    14    20  1
   20    16    20  1
   21    19    20  1
   22     1    21  1
   23     2    22  1
   24     5    23  1
   25     5    24  1
   26     6    25  1
   27     7    26  1
   28     8    27  1
   29     9    28  1
   30     9    29  1
   31    12    30  1
   32    12    31  1
   33    18    32  1

@<TRIPOS>MOLECULE
MOL
   32   33    0    0    0
SMALL
USER_CHARGES


@<TRIPOS>ATOM
   1   C1       18.6563   -1.3647   29.8506  C.2 1 <0> -0.1356
   2   C2       18.0320   -0.3721   29.2198  C.2 1 <0> -0.0410
   3   C3       18.4953   -1.4127   31.3272  C.2 1 <0>  0.4856
   4   C4       17.1375    0.4977   31.2932  C.2 1 <0>  0.8408
   5   C5       17.5323    2.8132   28.8986  C.3 1 <0>  0.0000
   6   C6       17.0963    3.3008   27.5363  C.3 1 <0>  0.2800
   7   C7       16.7283    2.0138   26.8111  C.3 1 <0>  0.2800
   8   C8       16.6349    1.6062   29.1186  C.3 1 <0>  0.5801
   9   C9       17.9106    1.3823   26.0876  C.3 1 <0>  0.2800
  10   N1       17.7789   -0.5268   31.9682  N.2 1 <0> -0.6611
  11   N2       17.2694    0.5738   29.8848 N.am 1 <0> -0.4690
  12   N3       19.1243   -2.4230   32.0171 N.pl3 1 <0> -0.8501
  13   O1       18.7676   -2.3524   26.1510  O.3 1 <0> -1.0332
  14   O2       20.3972   -0.3812   26.2318  O.3 1 <0> -1.0332
  15   O3       16.4667    1.3243   31.9139  O.2 1 <0> -0.5698
  16   O4       18.9314   -0.7527   24.1606  O.2 1 <0> -1.0332
  17   O5       16.2860    1.0915   27.8257  O.3 1 <0> -0.5601
  18   O6       15.9437    4.1297   27.6689  O.3 1 <0> -0.6802
  19   O7       17.9091   -0.0135   26.3390  O.3 1 <0> -0.5513
  20   P1       19.0969   -0.9440   25.6653  P.3 1 <0>  1.3711
  21   H1       19.2534   -2.1074   29.3386    H 1 <0>  0.1500
  22   H2       18.0959   -0.2631   28.1428    H 1 <0>  0.1500
  23   H3       18.6038    2.5904   28.9526    H 1 <0>  0.0000
  24   H4       17.3253    3.5840   29.6533    H 1 <0>  0.0000
  25   H5       17.8811    3.8569   27.0432    H 1 <0>  0.0000
  26   H6       15.9167    2.1647   26.1077    H 1 <0>  0.0000
  27   H7       15.7117    1.8867   29.6554    H 1 <0>  0.0000
  28   H8       18.8490    1.8078   26.4511    H 1 <0>  0.0000
  29   H9       17.8303    1.5497   25.0110    H 1 <0>  0.0000
  30  H10       19.6595   -3.0776   31.4994    H 1 <0>  0.3999
  31  H11       19.0154   -2.4529   33.0020    H 1 <0>  0.3999
  32  H12       15.7623    4.5625   26.8314    H 1 <0>  0.3999
@<TRIPOS>BOND
    1     1     2  1
    2     1     3  1
    3     2    11  1
    4     3    10  1
    5     3    12  1
    6     4    10  1
    7     4    11  1
    8     4    15  1
    9     5     6  1
   10     5     8  1
   11     6     7  1
   12     6    18  1
   13     7     9  1
   14     7    17  1
   15     8    11  1
   16     8    17  1
   17     9    19  1
   18    13    20  1
   19    14    20  1
   20    16    20  1
   21    19    20  1
   22     1    21  1
   23     2    22  1
   24     5    23  1
   25     5    24  1
   26     6    25  1
   27     7    26  1
   28     8    27  1
   29     9    28  1
   30     9    29  1
   31    12    30  1
   32    12    31  1
   33    18    32  1

@<TRIPOS>MOLECULE
MOL
   32   33    0    0    0
SMALL
USER_CHARGES


@<TRIPOS>ATOM
   1   C1       18.7062   -1.3071   29.8818  C.2 1 <0> -0.1356
   2   C2       18.0691   -0.3284   29.2422  C.2 1 <0> -0.0410
   3   C3       18.5562   -1.3364   31.3601  C.2 1 <0>  0.4856
   4   C4       17.1823    0.5621   31.3102  C.2 1 <0>  0.8408
   5   C5       17.5405    2.8480   28.8817  C.3 1 <0>  0.0000
   6   C6       17.0907    3.3135   27.5161  C.3 1 <0>  0.2800
   7   C7       16.7283    2.0138   26.8111  C.3 1 <0>  0.2800
   8   C8       16.6549    1.6368   29.1245  C.3 1 <0>  0.5801
   9   C9       17.9106    1.3823   26.0876  C.3 1 <0>  0.2800
  10   N1       17.8370   -0.4478   31.9943  N.2 1 <0> -0.6611
  11   N2       17.3034    0.6202   29.8999 N.am 1 <0> -0.4690
  12   N3       19.1985   -2.3320   32.0589 N.pl3 1 <0> -0.8501
  13   O1       18.7676   -2.3524   26.1510  O.3 1 <0> -1.0332
  14   O2       20.3972   -0.3812   26.2318  O.3 1 <0> -1.0332
  15   O3       16.5091    1.3915   31.9245  O.2 1 <0> -0.5698
  16   O4       18.9314   -0.7527   24.1606  O.2 1 <0> -1.0332
  17   O5       16.3010    1.1018   27.8413  O.3 1 <0> -0.5601
  18   O6       15.9322    4.1346   27.6459  O.3 1 <0> -0.6802
  19   O7       17.9091   -0.0135   26.3390  O.3 1 <0> -0.5513
  20   P1       19.0969   -0.9440   25.6653  P.3 1 <0>  1.3711
  21   H1       19.3057   -2.0518   29.3756    H 1 <0>  0.1500
  22   H2       18.1244   -0.2335   28.1634    H 1 <0>  0.1500
  23   H3       18.6143    2.6349   28.9309    H 1 <0>  0.0000
  24   H4       17.3326    3.6273   29.6274    H 1 <0>  0.0000
  25   H5       17.8674    3.8694   27.0099    H 1 <0>  0.0000
  26   H6       15.9104    2.1484   26.1116    H 1 <0>  0.0000
  27   H7       15.7332    1.9169   29.6642    H 1 <0>  0.0000
  28   H8       18.8490    1.8078   26.4511    H 1 <0>  0.0000
  29   H9       17.8303    1.5497   25.0110    H 1 <0>  0.0000
  30  H10       19.7354   -2.9891   31.5463    H 1 <0>  0.3999
  31  H11       19.0970   -2.3494   33.0449    H 1 <0>  0.3999
  32  H12       15.7413    4.5545   26.8040    H 1 <0>  0.3999
@<TRIPOS>BOND
    1     1     2  1
    2     1     3  1
    3     2    11  1
    4     3    10  1
    5     3    12  1
    6     4    10  1
    7     4    11  1
    8     4    15  1
    9     5     6  1
   10     5     8  1
   11     6     7  1
   12     6    18  1
   13     7     9  1
   14     7    17  1
   15     8    11  1
   16     8    17  1
   17     9    19  1
   18    13    20  1
   19    14    20  1
   20    16    20  1
   21    19    20  1
   22     1    21  1
   23     2    22  1
   24     5    23  1
   25     5    24  1
   26     6    25  1
   27     7    26  1
   28     8    27  1
   29     9    28  1
   30     9    29  1
   31    12    30  1
   32    12    31  1
   33    18    32  1

@<TRIPOS>MOLECULE
MOL
   32   33    0    0    0
SMALL
USER_CHARGES


@<TRIPOS>ATOM
   1   C1       18.7558   -1.2487   29.9119  C.2 1 <0> -0.1356
   2   C2       18.1060   -0.2840   29.2638  C.2 1 <0> -0.0410
   3   C3       18.6167   -1.2591   31.3916  C.2 1 <0>  0.4856
   4   C4       17.2267    0.6271   31.3260  C.2 1 <0>  0.8408
   5   C5       17.5484    2.8827   28.8643  C.3 1 <0>  0.0000
   6   C6       17.0849    3.3259   27.4958  C.3 1 <0>  0.2800
   7   C7       16.7283    2.0138   26.8111  C.3 1 <0>  0.2800
   8   C8       16.6746    1.6677   29.1299  C.3 1 <0>  0.5801
   9   C9       17.9106    1.3823   26.0876  C.3 1 <0>  0.2800
  10   N1       17.8947   -0.3680   32.0188  N.2 1 <0> -0.6611
  11   N2       17.3372    0.6671   29.9142 N.am 1 <0> -0.4690
  12   N3       19.2723   -2.2398   32.0990 N.pl3 1 <0> -0.8501
  13   O1       18.7676   -2.3524   26.1510  O.3 1 <0> -1.0332
  14   O2       20.3972   -0.3812   26.2318  O.3 1 <0> -1.0332
  15   O3       16.5510    1.4592   31.9339  O.2 1 <0> -0.5698
  16   O4       18.9314   -0.7527   24.1606  O.2 1 <0> -1.0332
  17   O5       16.3160    1.1124   27.8566  O.3 1 <0> -0.5601
  18   O6       15.9206    4.1391   27.6229  O.3 1 <0> -0.6802
  19   O7       17.9091   -0.0135   26.3390  O.3 1 <0> -0.5513
  20   P1       19.0969   -0.9440   25.6653  P.3 1 <0>  1.3711
  21   H1       19.3579   -1.9952   29.4114    H 1 <0>  0.1500
  22   H2       18.1528   -0.2033   28.1835    H 1 <0>  0.1500
  23   H3       18.6242    2.6791   28.9085    H 1 <0>  0.0000
  24   H4       17.3393    3.6703   29.6008    H 1 <0>  0.0000
  25   H5       17.8533    3.8812   26.9764    H 1 <0>  0.0000
  26   H6       15.9043    2.1322   26.1159    H 1 <0>  0.0000
  27   H7       15.7546    1.9475   29.6724    H 1 <0>  0.0000
  28   H8       18.8490    1.8078   26.4511    H 1 <0>  0.0000
  29   H9       17.8303    1.5497   25.0110    H 1 <0>  0.0000
  30  H10       19.8109   -2.8994   31.5914    H 1 <0>  0.3999
  31  H11       19.1780   -2.2447   33.0859    H 1 <0>  0.3999
  32  H12       15.7201    4.5460   26.7768    H 1 <0>  0.3999
@<TRIPOS>BOND
    1     1     2  1
    2     1     3  1
    3     2    11  1
    4     3    10  1
    5     3    12  1
    6     4    10  1
    7     4    11  1
    8     4    15  1
    9     5     6  1
   10     5     8  1
   11     6     7  1
   12     6    18  1
   13     7     9  1
   14     7    17  1
   15     8    11  1
   16     8    17  1
   17     9    19  1
   18    13    20  1
   19    14    20  1
   20    16    20  1
   21    19    20  1
   22     1    21  1
   23     2    22  1
   24     5    23  1
   25     5    24  1
   26     6    25  1
   27     7    26  1
   28     8    27  1
   29     9    28  1
   30     9    29  1
   31    12    30  1
   32    12    31  1
   33    18    32  1

@<TRIPOS>MOLECULE
MOL
   32   33    0    0    0
SMALL
USER_CHARGES


@<TRIPOS>ATOM
   1   C1       18.8052   -1.1894   29.9409  C.2 1 <0> -0.1356
   2   C2       18.1427   -0.2391   29.2845  C.2 1 <0> -0.0410
   3   C3       18.6768   -1.1810   31.4215  C.2 1 <0>  0.4856
   4   C4       17.2707    0.6927   31.3405  C.2 1 <0>  0.8408
   5   C5       17.5558    2.9172   28.8463  C.3 1 <0>  0.0000
   6   C6       17.0789    3.3379   27.4754  C.3 1 <0>  0.2800
   7   C7       16.7283    2.0138   26.8111  C.3 1 <0>  0.2800
   8   C8       16.6942    1.6988   29.1347  C.3 1 <0>  0.5801
   9   C9       17.9106    1.3823   26.0876  C.3 1 <0>  0.2800
  10   N1       17.9519   -0.2874   32.0419  N.2 1 <0> -0.6611
  11   N2       17.3707    0.7144   29.9276 N.am 1 <0> -0.4690
  12   N3       19.3456   -2.1465   32.1374 N.pl3 1 <0> -0.8501
  13   O1       18.7676   -2.3524   26.1510  O.3 1 <0> -1.0332
  14   O2       20.3972   -0.3812   26.2318  O.3 1 <0> -1.0332
  15   O3       16.5925    1.5274   31.9421  O.2 1 <0> -0.5698
  16   O4       18.9314   -0.7527   24.1606  O.2 1 <0> -1.0332
  17   O5       16.3311    1.1233   27.8717  O.3 1 <0> -0.5601
  18   O6       15.9087    4.1432   27.6000  O.3 1 <0> -0.6802
  19   O7       17.9091   -0.0135   26.3390  O.3 1 <0> -0.5513
  20   P1       19.0969   -0.9440   25.6653  P.3 1 <0>  1.3711
  21   H1       19.4098   -1.9377   29.4462    H 1 <0>  0.1500
  22   H2       18.1810   -0.1727   28.2029    H 1 <0>  0.1500
  23   H3       18.6336    2.7232   28.8854    H 1 <0>  0.0000
  24   H4       17.3455    3.7130   29.5736    H 1 <0>  0.0000
  25   H5       17.8388    3.8925   26.9430    H 1 <0>  0.0000
  26   H6       15.8984    2.1159   26.1203    H 1 <0>  0.0000
  27   H7       15.7757    1.9783   29.6801    H 1 <0>  0.0000
  28   H8       18.8490    1.8078   26.4511    H 1 <0>  0.0000
  29   H9       17.8303    1.5497   25.0110    H 1 <0>  0.0000
  30  H10       19.8860   -2.8085   31.6348    H 1 <0>  0.3999
  31  H11       19.2584   -2.1388   33.1249    H 1 <0>  0.3999
  32  H12       15.6988    4.5369   26.7500    H 1 <0>  0.3999
@<TRIPOS>BOND
    1     1     2  1
    2     1     3  1
    3     2    11  1
    4     3    10  1
    5     3    12  1
    6     4    10  1
    7     4    11  1
    8     4    15  1
    9     5     6  1
   10     5     8  1
   11     6     7  1
   12     6    18  1
   13     7     9  1
   14     7    17  1
   15     8    11  1
   16     8    17  1
   17     9    19  1
   18    13    20  1
   19    14    20  1
   20    16    20  1
   21    19    20  1
   22     1    21  1
   23     2    22  1
   24     5    23  1
   25     5    24  1
   26     6    25  1
   27     7    26  1
   28     8    27  1
   29     9    28  1
   30     9    29  1
   31    12    30  1
   32    12    31  1
   33    18    32  1

@<TRIPOS>MOLECULE
MOL
   32   33    0    0    0
SMALL
USER_CHARGES


@<TRIPOS>ATOM
   1   C1       18.8542   -1.1294   29.9687  C.2 1 <0> -0.1356
   2   C2       18.1792   -0.1936   29.3044  C.2 1 <0> -0.0410
   3   C3       18.7364   -1.1019   31.4499  C.2 1 <0>  0.4856
   4   C4       17.3142    0.7588   31.3539  C.2 1 <0>  0.8408
   5   C5       17.5629    2.9516   28.8278  C.3 1 <0>  0.0000
   6   C6       17.0726    3.3497   27.4549  C.3 1 <0>  0.2800
   7   C7       16.7283    2.0138   26.8111  C.3 1 <0>  0.2800
   8   C8       16.7135    1.7301   29.1389  C.3 1 <0>  0.5801
   9   C9       17.9106    1.3823   26.0876  C.3 1 <0>  0.2800
  10   N1       18.0085   -0.2060   32.0635  N.2 1 <0> -0.6611
  11   N2       17.4038    0.7621   29.9401 N.am 1 <0> -0.4690
  12   N3       19.4183   -2.0521   32.1739 N.pl3 1 <0> -0.8501
  13   O1       18.7676   -2.3524   26.1510  O.3 1 <0> -1.0332
  14   O2       20.3972   -0.3812   26.2318  O.3 1 <0> -1.0332
  15   O3       16.6334    1.5960   31.9491  O.2 1 <0> -0.5698
  16   O4       18.9314   -0.7527   24.1606  O.2 1 <0> -1.0332
  17   O5       16.3461    1.1345   27.8865  O.3 1 <0> -0.5601
  18   O6       15.8967    4.1469   27.5771  O.3 1 <0> -0.6802
  19   O7       17.9091   -0.0135   26.3390  O.3 1 <0> -0.5513
  20   P1       19.0969   -0.9440   25.6653  P.3 1 <0>  1.3711
  21   H1       19.4615   -1.8794   29.4797    H 1 <0>  0.1500
  22   H2       18.2091   -0.1415   28.2217    H 1 <0>  0.1500
  23   H3       18.6425    2.7669   28.8617    H 1 <0>  0.0000
  24   H4       17.3511    3.7554   29.5458    H 1 <0>  0.0000
  25   H5       17.8240    3.9032   26.9095    H 1 <0>  0.0000
  26   H6       15.8926    2.0997   26.1251    H 1 <0>  0.0000
  27   H7       15.7967    2.0094   29.6872    H 1 <0>  0.0000
  28   H8       18.8490    1.8078   26.4511    H 1 <0>  0.0000
  29   H9       17.8303    1.5497   25.0110    H 1 <0>  0.0000
  30  H10       19.9607   -2.7164   31.6764    H 1 <0>  0.3999
  31  H11       19.3382   -2.0317   33.1618    H 1 <0>  0.3999
  32  H12       15.6774    4.5273   26.7234    H 1 <0>  0.3999
@<TRIPOS>BOND
    1     1     2  1
    2     1     3  1
    3     2    11  1
    4     3    10  1
    5     3    12  1
    6     4    10  1
    7     4    11  1
    8     4    15  1
    9     5     6  1
   10     5     8  1
   11     6     7  1
   12     6    18  1
   13     7     9  1
   14     7    17  1
   15     8    11  1
   16     8    17  1
   17     9    19  1
   18    13    20  1
   19    14    20  1
   20    16    20  1
   21    19    20  1
   22     1    21  1
   23     2    22  1
   24     5    23  1
   25     5    24  1
   26     6    25  1
   27     7    26  1
   28     8    27  1
   29     9    28  1
   30     9    29  1
   31    12    30  1
   32    12    31  1
   33    18    32  1

@<TRIPOS>MOLECULE
MOL
   32   33    0    0    0
SMALL
USER_CHARGES


@<TRIPOS>ATOM
   1   C1       18.9030   -1.0686   29.9953  C.2 1 <0> -0.1356
   2   C2       18.2154   -0.1475   29.3234  C.2 1 <0> -0.0410
   3   C3       18.7955   -1.0220   31.4768  C.2 1 <0>  0.4856
   4   C4       17.3572    0.8255   31.3661  C.2 1 <0>  0.8408
   5   C5       17.5695    2.9857   28.8088  C.3 1 <0>  0.0000
   6   C6       17.0661    3.3611   27.4342  C.3 1 <0>  0.2800
   7   C7       16.7283    2.0138   26.8111  C.3 1 <0>  0.2800
   8   C8       16.7326    1.7616   29.1426  C.3 1 <0>  0.5801
   9   C9       17.9106    1.3823   26.0876  C.3 1 <0>  0.2800
  10   N1       18.0647   -0.1239   32.0835  N.2 1 <0> -0.6611
  11   N2       17.4367    0.8103   29.9518 N.am 1 <0> -0.4690
  12   N3       19.4906   -1.9566   32.2086 N.pl3 1 <0> -0.8501
  13   O1       18.7676   -2.3524   26.1510  O.3 1 <0> -1.0332
  14   O2       20.3972   -0.3812   26.2318  O.3 1 <0> -1.0332
  15   O3       16.6737    1.6650   31.9548  O.2 1 <0> -0.5698
  16   O4       18.9314   -0.7527   24.1606  O.2 1 <0> -1.0332
  17   O5       16.3612    1.1461   27.9010  O.3 1 <0> -0.5601
  18   O6       15.8845    4.1502   27.5543  O.3 1 <0> -0.6802
  19   O7       17.9091   -0.0135   26.3390  O.3 1 <0> -0.5513
  20   P1       19.0969   -0.9440   25.6653  P.3 1 <0>  1.3711
  21   H1       19.5130   -1.8201   29.5121    H 1 <0>  0.1500
  22   H2       18.2372   -0.1099   28.2399    H 1 <0>  0.1500
  23   H3       18.6508    2.8105   28.8373    H 1 <0>  0.0000
  24   H4       17.3562    3.7974   29.5174    H 1 <0>  0.0000
  25   H5       17.8089    3.9133   26.8759    H 1 <0>  0.0000
  26   H6       15.8870    2.0835   26.1301    H 1 <0>  0.0000
  27   H7       15.8174    2.0408   29.6937    H 1 <0>  0.0000
  28   H8       18.8490    1.8078   26.4511    H 1 <0>  0.0000
  29   H9       17.8303    1.5497   25.0110    H 1 <0>  0.0000
  30  H10       20.0349   -2.6231   31.7162    H 1 <0>  0.3999
  31  H11       19.4174   -1.9235   33.1967    H 1 <0>  0.3999
  32  H12       15.6558    4.5171   26.6971    H 1 <0>  0.3999
@<TRIPOS>BOND
    1     1     2  1
    2     1     3  1
    3     2    11  1
    4     3    10  1
    5     3    12  1
    6     4    10  1
    7     4    11  1
    8     4    15  1
    9     5     6  1
   10     5     8  1
   11     6     7  1
   12     6    18  1
   13     7     9  1
   14     7    17  1
   15     8    11  1
   16     8    17  1
   17     9    19  1
   18    13    20  1
   19    14    20  1
   20    16    20  1
   21    19    20  1
   22     1    21  1
   23     2    22  1
   24     5    23  1
   25     5    24  1
   26     6    25  1
   27     7    26  1
   28     8    27  1
   29     9    28  1
   30     9    29  1
   31    12    30  1
   32    12    31  1
   33    18    32  1

@<TRIPOS>MOLECULE
MOL
   32   33    0    0    0
SMALL
USER_CHARGES


@<TRIPOS>ATOM
   1   C1       18.9514   -1.0071   30.0207  C.2 1 <0> -0.1356
   2   C2       18.2513   -0.1008   29.3414  C.2 1 <0> -0.0410
   3   C3       18.8542   -0.9412   31.5022  C.2 1 <0>  0.4856
   4   C4       17.3998    0.8926   31.3770  C.2 1 <0>  0.8408
   5   C5       17.5757    3.0197   28.7893  C.3 1 <0>  0.0000
   6   C6       17.0593    3.3722   27.4135  C.3 1 <0>  0.2800
   7   C7       16.7283    2.0138   26.8111  C.3 1 <0>  0.2800
   8   C8       16.7514    1.7933   29.1457  C.3 1 <0>  0.5801
   9   C9       17.9106    1.3823   26.0876  C.3 1 <0>  0.2800
  10   N1       18.1203   -0.0410   32.1021  N.2 1 <0> -0.6611
  11   N2       17.4692    0.8590   29.9625 N.am 1 <0> -0.4690
  12   N3       19.5623   -1.8601   32.2415 N.pl3 1 <0> -0.8501
  13   O1       18.7676   -2.3524   26.1510  O.3 1 <0> -1.0332
  14   O2       20.3972   -0.3812   26.2318  O.3 1 <0> -1.0332
  15   O3       16.7136    1.7344   31.9593  O.2 1 <0> -0.5698
  16   O4       18.9314   -0.7527   24.1606  O.2 1 <0> -1.0332
  17   O5       16.3763    1.1579   27.9153  O.3 1 <0> -0.5601
  18   O6       15.8720    4.1530   27.5314  O.3 1 <0> -0.6802
  19   O7       17.9091   -0.0135   26.3390  O.3 1 <0> -0.5513
  20   P1       19.0969   -0.9440   25.6653  P.3 1 <0>  1.3711
  21   H1       19.5642   -1.7600   29.5433    H 1 <0>  0.1500
  22   H2       18.2650   -0.0778   28.2574    H 1 <0>  0.1500
  23   H3       18.6586    2.8537   28.8123    H 1 <0>  0.0000
  24   H4       17.3607    3.8391   29.4884    H 1 <0>  0.0000
  25   H5       17.7935    3.9229   26.8424    H 1 <0>  0.0000
  26   H6       15.8816    2.0673   26.1354    H 1 <0>  0.0000
  27   H7       15.8380    2.0724   29.6996    H 1 <0>  0.0000
  28   H8       18.8490    1.8078   26.4511    H 1 <0>  0.0000
  29   H9       17.8303    1.5497   25.0110    H 1 <0>  0.0000
  30  H10       20.1086   -2.5287   31.7542    H 1 <0>  0.3999
  31  H11       19.4959   -1.8141   33.2295    H 1 <0>  0.3999
  32  H12       15.6342    4.5064   26.6711    H 1 <0>  0.3999
@<TRIPOS>BOND
    1     1     2  1
    2     1     3  1
    3     2    11  1
    4     3    10  1
    5     3    12  1
    6     4    10  1
    7     4    11  1
    8     4    15  1
    9     5     6  1
   10     5     8  1
   11     6     7  1
   12     6    18  1
   13     7     9  1
   14     7    17  1
   15     8    11  1
   16     8    17  1
   17     9    19  1
   18    13    20  1
   19    14    20  1
   20    16    20  1
   21    19    20  1
   22     1    21  1
   23     2    22  1
   24     5    23  1
   25     5    24  1
   26     6    25  1
   27     7    26  1
   28     8    27  1
   29     9    28  1
   30     9    29  1
   31    12    30  1
   32    12    31  1
   33    18    32  1

@<TRIPOS>MOLECULE
MOL
   32   33    0    0    0
SMALL
USER_CHARGES


@<TRIPOS>ATOM
   1   C1       18.9995   -0.9448   30.0449  C.2 1 <0> -0.1356
   2   C2       18.2870   -0.0537   29.3586  C.2 1 <0> -0.0410
   3   C3       18.9124   -0.8597   31.5261  C.2 1 <0>  0.4856
   4   C4       17.4419    0.9603   31.3867  C.2 1 <0>  0.8408
   5   C5       17.5814    3.0534   28.7693  C.3 1 <0>  0.0000
   6   C6       17.0523    3.3829   27.3926  C.3 1 <0>  0.2800
   7   C7       16.7283    2.0138   26.8111  C.3 1 <0>  0.2800
   8   C8       16.7700    1.8252   29.1482  C.3 1 <0>  0.5801
   9   C9       17.9106    1.3823   26.0876  C.3 1 <0>  0.2800
  10   N1       18.1753    0.0426   32.1191  N.2 1 <0> -0.6611
  11   N2       17.5014    0.9080   29.9723 N.am 1 <0> -0.4690
  12   N3       19.6334   -1.7625   32.2725 N.pl3 1 <0> -0.8501
  13   O1       18.7676   -2.3524   26.1510  O.3 1 <0> -1.0332
  14   O2       20.3972   -0.3812   26.2318  O.3 1 <0> -1.0332
  15   O3       16.7529    1.8043   31.9626  O.2 1 <0> -0.5698
  16   O4       18.9314   -0.7527   24.1606  O.2 1 <0> -1.0332
  17   O5       16.3914    1.1701   27.9293  O.3 1 <0> -0.5601
  18   O6       15.8594    4.1555   27.5087  O.3 1 <0> -0.6802
  19   O7       17.9091   -0.0135   26.3390  O.3 1 <0> -0.5513
  20   P1       19.0969   -0.9440   25.6653  P.3 1 <0>  1.3711
  21   H1       19.6151   -1.6991   29.5733    H 1 <0>  0.1500
  22   H2       18.2928   -0.0452   28.2743    H 1 <0>  0.1500
  23   H3       18.6658    2.8967   28.7866    H 1 <0>  0.0000
  24   H4       17.3647    3.8804   29.4588    H 1 <0>  0.0000
  25   H5       17.7777    3.9318   26.8088    H 1 <0>  0.0000
  26   H6       15.8764    2.0512   26.1409    H 1 <0>  0.0000
  27   H7       15.8583    2.1043   29.7050    H 1 <0>  0.0000
  28   H8       18.8490    1.8078   26.4511    H 1 <0>  0.0000
  29   H9       17.8303    1.5497   25.0110    H 1 <0>  0.0000
  30  H10       20.1817   -2.4331   31.7903    H 1 <0>  0.3999
  31  H11       19.5737   -1.7037   33.2604    H 1 <0>  0.3999
  32  H12       15.6125    4.4952   26.6454    H 1 <0>  0.3999
@<TRIPOS>BOND
    1     1     2  1
    2     1     3  1
    3     2    11  1
    4     3    10  1
    5     3    12  1
    6     4    10  1
    7     4    11  1
    8     4    15  1
    9     5     6  1
   10     5     8  1
   11     6     7  1
   12     6    18  1
   13     7     9  1
   14     7    17  1
   15     8    11  1
   16     8    17  1
   17     9    19  1
   18    13    20  1
   19    14    20  1
   20    16    20  1
   21    19    20  1
   22     1    21  1
   23     2    22  1
   24     5    23  1
   25     5    24  1
   26     6    25  1
   27     7    26  1
   28     8    27  1
   29     9    28  1
   30     9    29  1
   31    12    30  1
   32    12    31  1
   33    18    32  1

@<TRIPOS>MOLECULE
MOL
   32   33    0    0    0
SMALL
USER_CHARGES


@<TRIPOS>ATOM
   1   C1       19.0473   -0.8818   30.0680  C.2 1 <0> -0.1356
   2   C2       18.3225   -0.0060   29.3749  C.2 1 <0> -0.0410
   3   C3       18.9701   -0.7773   31.5485  C.2 1 <0>  0.4856
   4   C4       17.4835    1.0284   31.3952  C.2 1 <0>  0.8408
   5   C5       17.5868    3.0869   28.7488  C.3 1 <0>  0.0000
   6   C6       17.0450    3.3933   27.3717  C.3 1 <0>  0.2800
   7   C7       16.7283    2.0138   26.8111  C.3 1 <0>  0.2800
   8   C8       16.7883    1.8573   29.1502  C.3 1 <0>  0.5801
   9   C9       17.9106    1.3823   26.0876  C.3 1 <0>  0.2800
  10   N1       18.2298    0.1268   32.1345  N.2 1 <0> -0.6611
  11   N2       17.5333    0.9574   29.9813 N.am 1 <0> -0.4690
  12   N3       19.7039   -1.6640   32.3018 N.pl3 1 <0> -0.8501
  13   O1       18.7676   -2.3524   26.1510  O.3 1 <0> -1.0332
  14   O2       20.3972   -0.3812   26.2318  O.3 1 <0> -1.0332
  15   O3       16.7916    1.8744   31.9646  O.2 1 <0> -0.5698
  16   O4       18.9314   -0.7527   24.1606  O.2 1 <0> -1.0332
  17   O5       16.4065    1.1827   27.9430  O.3 1 <0> -0.5601
  18   O6       15.8466    4.1575   27.4860  O.3 1 <0> -0.6802
  19   O7       17.9091   -0.0135   26.3390  O.3 1 <0> -0.5513
  20   P1       19.0969   -0.9440   25.6653  P.3 1 <0>  1.3711
  21   H1       19.6657   -1.6373   29.6021    H 1 <0>  0.1500
  22   H2       18.3203   -0.0122   28.2905    H 1 <0>  0.1500
  23   H3       18.6725    2.9394   28.7603    H 1 <0>  0.0000
  24   H4       17.3681    3.9214   29.4286    H 1 <0>  0.0000
  25   H5       17.7616    3.9402   26.7752    H 1 <0>  0.0000
  26   H6       15.8713    2.0350   26.1467    H 1 <0>  0.0000
  27   H7       15.8783    2.1364   29.7098    H 1 <0>  0.0000
  28   H8       18.8490    1.8078   26.4511    H 1 <0>  0.0000
  29   H9       17.8303    1.5497   25.0110    H 1 <0>  0.0000
  30  H10       20.2543   -2.3365   31.8247    H 1 <0>  0.3999
  31  H11       19.6509   -1.5922   33.2891    H 1 <0>  0.3999
  32  H12       15.5907    4.4834   26.6200    H 1 <0>  0.3999
@<TRIPOS>BOND
    1     1     2  1
    2     1     3  1
    3     2    11  1
    4     3    10  1
    5     3    12  1
    6     4    10  1
    7     4    11  1
    8     4    15  1
    9     5     6  1
   10     5     8  1
   11     6     7  1
   12     6    18  1
   13     7     9  1
   14     7    17  1
   15     8    11  1
   16     8    17  1
   17     9    19  1
   18    13    20  1
   19    14    20  1
   20    16    20  1
   21    19    20  1
   22     1    21  1
   23     2    22  1
   24     5    23  1
   25     5    24  1
   26     6    25  1
   27     7    26  1
   28     8    27  1
   29     9    28  1
   30     9    29  1
   31    12    30  1
   32    12    31  1
   33    18    32  1

@<TRIPOS>MOLECULE
MOL
   32   33    0    0    0
SMALL
USER_CHARGES


@<TRIPOS>ATOM
   1   C1       19.0947   -0.8181   30.0898  C.2 1 <0> -0.1356
   2   C2       18.3576    0.0422   29.3903  C.2 1 <0> -0.0410
   3   C3       19.0273   -0.6941   31.5693  C.2 1 <0>  0.4856
   4   C4       17.5245    1.0970   31.4025  C.2 1 <0>  0.8408
   5   C5       17.5917    3.1201   28.7278  C.3 1 <0>  0.0000
   6   C6       17.0375    3.4033   27.3507  C.3 1 <0>  0.2800
   7   C7       16.7283    2.0138   26.8111  C.3 1 <0>  0.2800
   8   C8       16.8064    1.8896   29.1516  C.3 1 <0>  0.5801
   9   C9       17.9106    1.3823   26.0876  C.3 1 <0>  0.2800
  10   N1       18.2836    0.2117   32.1485  N.2 1 <0> -0.6611
  11   N2       17.5648    1.0073   29.9893 N.am 1 <0> -0.4690
  12   N3       19.7738   -1.5644   32.3291 N.pl3 1 <0> -0.8501
  13   O1       18.7676   -2.3524   26.1510  O.3 1 <0> -1.0332
  14   O2       20.3972   -0.3812   26.2318  O.3 1 <0> -1.0332
  15   O3       16.8298    1.9449   31.9654  O.2 1 <0> -0.5698
  16   O4       18.9314   -0.7527   24.1606  O.2 1 <0> -1.0332
  17   O5       16.4215    1.1955   27.9565  O.3 1 <0> -0.5601
  18   O6       15.8336    4.1591   27.4634  O.3 1 <0> -0.6802
  19   O7       17.9091   -0.0135   26.3390  O.3 1 <0> -0.5513
  20   P1       19.0969   -0.9440   25.6653  P.3 1 <0>  1.3711
  21   H1       19.7160   -1.5747   29.6297    H 1 <0>  0.1500
  22   H2       18.3478    0.0213   28.3061    H 1 <0>  0.1500
  23   H3       18.6787    2.9817   28.7334    H 1 <0>  0.0000
  24   H4       17.3709    3.9620   29.3979    H 1 <0>  0.0000
  25   H5       17.7453    3.9480   26.7417    H 1 <0>  0.0000
  26   H6       15.8664    2.0189   26.1527    H 1 <0>  0.0000
  27   H7       15.8982    2.1687   29.7140    H 1 <0>  0.0000
  28   H8       18.8490    1.8078   26.4511    H 1 <0>  0.0000
  29   H9       17.8303    1.5497   25.0110    H 1 <0>  0.0000
  30  H10       20.3264   -2.2388   31.8572    H 1 <0>  0.3999
  31  H11       19.7273   -1.4797   33.3158    H 1 <0>  0.3999
  32  H12       15.5688    4.4711   26.5949    H 1 <0>  0.3999
@<TRIPOS>BOND
    1     1     2  1
    2     1     3  1
    3     2    11  1
    4     3    10  1
    5     3    12  1
    6     4    10  1
    7     4    11  1
    8     4    15  1
    9     5     6  1
   10     5     8  1
   11     6     7  1
   12     6    18  1
   13     7     9  1
   14     7    17  1
   15     8    11  1
   16     8    17  1
   17     9    19  1
   18    13    20  1
   19    14    20  1
   20    16    20  1
   21    19    20  1
   22     1    21  1
   23     2    22  1
   24     5    23  1
   25     5    24  1
   26     6    25  1
   27     7    26  1
   28     8    27  1
   29     9    28  1
   30     9    29  1
   31    12    30  1
   32    12    31  1
   33    18    32  1

@<TRIPOS>MOLECULE
MOL
   32   33    0    0    0
SMALL
USER_CHARGES


@<TRIPOS>ATOM
   1   C1       19.1417   -0.7538   30.1105  C.2 1 <0> -0.1356
   2   C2       18.3925    0.0909   29.4047  C.2 1 <0> -0.0410
   3   C3       19.0839   -0.6103   31.5886  C.2 1 <0>  0.4856
   4   C4       17.5651    1.1660   31.4085  C.2 1 <0>  0.8408
   5   C5       17.5962    3.1531   28.7064  C.3 1 <0>  0.0000
   6   C6       17.0298    3.4130   27.3296  C.3 1 <0>  0.2800
   7   C7       16.7283    2.0138   26.8111  C.3 1 <0>  0.2800
   8   C8       16.8243    1.9220   29.1524  C.3 1 <0>  0.5801
   9   C9       17.9106    1.3823   26.0876  C.3 1 <0>  0.2800
  10   N1       18.3369    0.2972   32.1608  N.2 1 <0> -0.6611
  11   N2       17.5960    1.0574   29.9964 N.am 1 <0> -0.4690
  12   N3       19.8431   -1.4640   32.3546 N.pl3 1 <0> -0.8501
  13   O1       18.7676   -2.3524   26.1510  O.3 1 <0> -1.0332
  14   O2       20.3972   -0.3812   26.2318  O.3 1 <0> -1.0332
  15   O3       16.8673    2.0158   31.9650  O.2 1 <0> -0.5698
  16   O4       18.9314   -0.7527   24.1606  O.2 1 <0> -1.0332
  17   O5       16.4366    1.2086   27.9696  O.3 1 <0> -0.5601
  18   O6       15.8205    4.1604   27.4408  O.3 1 <0> -0.6802
  19   O7       17.9091   -0.0135   26.3390  O.3 1 <0> -0.5513
  20   P1       19.0969   -0.9440   25.6653  P.3 1 <0>  1.3711
  21   H1       19.7660   -1.5114   29.6561    H 1 <0>  0.1500
  22   H2       18.3750    0.0551   28.3211    H 1 <0>  0.1500
  23   H3       18.6843    3.0238   28.7059    H 1 <0>  0.0000
  24   H4       17.3732    4.0021   29.3666    H 1 <0>  0.0000
  25   H5       17.7286    3.9552   26.7081    H 1 <0>  0.0000
  26   H6       15.8617    2.0029   26.1590    H 1 <0>  0.0000
  27   H7       15.9178    2.2013   29.7176    H 1 <0>  0.0000
  28   H8       18.8490    1.8078   26.4511    H 1 <0>  0.0000
  29   H9       17.8303    1.5497   25.0110    H 1 <0>  0.0000
  30  H10       20.3979   -2.1401   31.8878    H 1 <0>  0.3999
  31  H11       19.8029   -1.3662   33.3403    H 1 <0>  0.3999
  32  H12       15.5468    4.4583   26.5702    H 1 <0>  0.3999
@<TRIPOS>BOND
    1     1     2  1
    2     1     3  1
    3     2    11  1
    4     3    10  1
    5     3    12  1
    6     4    10  1
    7     4    11  1
    8     4    15  1
    9     5     6  1
   10     5     8  1
   11     6     7  1
   12     6    18  1
   13     7     9  1
   14     7    17  1
   15     8    11  1
   16     8    17  1
   17     9    19  1
   18    13    20  1
   19    14    20  1
   20    16    20  1
   21    19    20  1
   22     1    21  1
   23     2    22  1
   24     5    23  1
   25     5    24  1
   26     6    25  1
   27     7    26  1
   28     8    27  1
   29     9    28  1
   30     9    29  1
   31    12    30  1
   32    12    31  1
   33    18    32  1

@<TRIPOS>MOLECULE
MOL
   32   33    0    0    0
SMALL
USER_CHARGES


@<TRIPOS>ATOM
   1   C1       19.1883   -0.6887   30.1299  C.2 1 <0> -0.1356
   2   C2       18.4270    0.1401   29.4183  C.2 1 <0> -0.0410
   3   C3       19.1399   -0.5256   31.6063  C.2 1 <0>  0.4856
   4   C4       17.6051    1.2355   31.4133  C.2 1 <0>  0.8408
   5   C5       17.6002    3.1858   28.6844  C.3 1 <0>  0.0000
   6   C6       17.0218    3.4224   27.3084  C.3 1 <0>  0.2800
   7   C7       16.7283    2.0138   26.8111  C.3 1 <0>  0.2800
   8   C8       16.8418    1.9546   29.1527  C.3 1 <0>  0.5801
   9   C9       17.9106    1.3823   26.0876  C.3 1 <0>  0.2800
  10   N1       18.3895    0.3833   32.1717  N.2 1 <0> -0.6611
  11   N2       17.6268    1.1079   30.0026 N.am 1 <0> -0.4690
  12   N3       19.9117   -1.3626   32.3783 N.pl3 1 <0> -0.8501
  13   O1       18.7676   -2.3524   26.1510  O.3 1 <0> -1.0332
  14   O2       20.3972   -0.3812   26.2318  O.3 1 <0> -1.0332
  15   O3       16.9043    2.0869   31.9634  O.2 1 <0> -0.5698
  16   O4       18.9314   -0.7527   24.1606  O.2 1 <0> -1.0332
  17   O5       16.4517    1.2220   27.9825  O.3 1 <0> -0.5601
  18   O6       15.8072    4.1612   27.4183  O.3 1 <0> -0.6802
  19   O7       17.9091   -0.0135   26.3390  O.3 1 <0> -0.5513
  20   P1       19.0969   -0.9440   25.6653  P.3 1 <0>  1.3711
  21   H1       19.8157   -1.4473   29.6812    H 1 <0>  0.1500
  22   H2       18.4021    0.0895   28.3354    H 1 <0>  0.1500
  23   H3       18.6894    3.0655   28.6777    H 1 <0>  0.0000
  24   H4       17.3749    4.0419   29.3347    H 1 <0>  0.0000
  25   H5       17.7116    3.9618   26.6746    H 1 <0>  0.0000
  26   H6       15.8572    1.9869   26.1656    H 1 <0>  0.0000
  27   H7       15.9371    2.2340   29.7206    H 1 <0>  0.0000
  28   H8       18.8490    1.8078   26.4511    H 1 <0>  0.0000
  29   H9       17.8303    1.5497   25.0110    H 1 <0>  0.0000
  30  H10       20.4687   -2.0404   31.9166    H 1 <0>  0.3999
  31  H11       19.8778   -1.2518   33.3628    H 1 <0>  0.3999
  32  H12       15.5248    4.4450   26.5458    H 1 <0>  0.3999
@<TRIPOS>BOND
    1     1     2  1
    2     1     3  1
    3     2    11  1
    4     3    10  1
    5     3    12  1
    6     4    10  1
    7     4    11  1
    8     4    15  1
    9     5     6  1
   10     5     8  1
   11     6     7  1
   12     6    18  1
   13     7     9  1
   14     7    17  1
   15     8    11  1
   16     8    17  1
   17     9    19  1
   18    13    20  1
   19    14    20  1
   20    16    20  1
   21    19    20  1
   22     1    21  1
   23     2    22  1
   24     5    23  1
   25     5    24  1
   26     6    25  1
   27     7    26  1
   28     8    27  1
   29     9    28  1
   30     9    29  1
   31    12    30  1
   32    12    31  1
   33    18    32  1

@<TRIPOS>MOLECULE
MOL
   32   33    0    0    0
SMALL
USER_CHARGES


@<TRIPOS>ATOM
   1   C1       19.2345   -0.6231   30.1481  C.2 1 <0> -0.1356
   2   C2       18.4613    0.1897   29.4309  C.2 1 <0> -0.0410
   3   C3       19.1953   -0.4404   31.6225  C.2 1 <0>  0.4856
   4   C4       17.6446    1.3053   31.4169  C.2 1 <0>  0.8408
   5   C5       17.6038    3.2183   28.6620  C.3 1 <0>  0.0000
   6   C6       17.0136    3.4314   27.2872  C.3 1 <0>  0.2800
   7   C7       16.7283    2.0138   26.8111  C.3 1 <0>  0.2800
   8   C8       16.8591    1.9874   29.1524  C.3 1 <0>  0.5801
   9   C9       17.9106    1.3823   26.0876  C.3 1 <0>  0.2800
  10   N1       18.4415    0.4700   32.1810  N.2 1 <0> -0.6611
  11   N2       17.6572    1.1588   30.0080 N.am 1 <0> -0.4690
  12   N3       19.9796   -1.2604   32.4000 N.pl3 1 <0> -0.8501
  13   O1       18.7676   -2.3524   26.1510  O.3 1 <0> -1.0332
  14   O2       20.3972   -0.3812   26.2318  O.3 1 <0> -1.0332
  15   O3       16.9407    2.1583   31.9605  O.2 1 <0> -0.5698
  16   O4       18.9314   -0.7527   24.1606  O.2 1 <0> -1.0332
  17   O5       16.4667    1.2358   27.9951  O.3 1 <0> -0.5601
  18   O6       15.7937    4.1615   27.3960  O.3 1 <0> -0.6802
  19   O7       17.9091   -0.0135   26.3390  O.3 1 <0> -0.5513
  20   P1       19.0969   -0.9440   25.6653  P.3 1 <0>  1.3711
  21   H1       19.8649   -1.3825   29.7052    H 1 <0>  0.1500
  22   H2       18.4290    0.1242   28.3490    H 1 <0>  0.1500
  23   H3       18.6939    3.1069   28.6490    H 1 <0>  0.0000
  24   H4       17.3761    4.0812   29.3023    H 1 <0>  0.0000
  25   H5       17.6943    3.9678   26.6411    H 1 <0>  0.0000
  26   H6       15.8528    1.9710   26.1724    H 1 <0>  0.0000
  27   H7       15.9562    2.2670   29.7231    H 1 <0>  0.0000
  28   H8       18.8490    1.8078   26.4511    H 1 <0>  0.0000
  29   H9       17.8303    1.5497   25.0110    H 1 <0>  0.0000
  30  H10       20.5390   -1.9398   31.9435    H 1 <0>  0.3999
  31  H11       19.9519   -1.1365   33.3832    H 1 <0>  0.3999
  32  H12       15.5027    4.4312   26.5217    H 1 <0>  0.3999
@<TRIPOS>BOND
    1     1     2  1
    2     1     3  1
    3     2    11  1
    4     3    10  1
    5     3    12  1
    6     4    10  1
    7     4    11  1
    8     4    15  1
    9     5     6  1
   10     5     8  1
   11     6     7  1
   12     6    18  1
   13     7     9  1
   14     7    17  1
   15     8    11  1
   16     8    17  1
   17     9    19  1
   18    13    20  1
   19    14    20  1
   20    16    20  1
   21    19    20  1
   22     1    21  1
   23     2    22  1
   24     5    23  1
   25     5    24  1
   26     6    25  1
   27     7    26  1
   28     8    27  1
   29     9    28  1
   30     9    29  1
   31    12    30  1
   32    12    31  1
   33    18    32  1

@<TRIPOS>MOLECULE
MOL
   32   33    0    0    0
SMALL
USER_CHARGES


@<TRIPOS>ATOM
   1   C1       19.2803   -0.5568   30.1651  C.2 1 <0> -0.1356
   2   C2       18.4952    0.2398   29.4426  C.2 1 <0> -0.0410
   3   C3       19.2502   -0.3544   31.6371  C.2 1 <0>  0.4856
   4   C4       17.6835    1.3754   31.4193  C.2 1 <0>  0.8408
   5   C5       17.6070    3.2505   28.6391  C.3 1 <0>  0.0000
   6   C6       17.0052    3.4400   27.2659  C.3 1 <0>  0.2800
   7   C7       16.7283    2.0138   26.8111  C.3 1 <0>  0.2800
   8   C8       16.8762    2.0202   29.1515  C.3 1 <0>  0.5801
   9   C9       17.9106    1.3823   26.0876  C.3 1 <0>  0.2800
  10   N1       18.4928    0.5572   32.1887  N.2 1 <0> -0.6611
  11   N2       17.6872    1.2100   30.0124 N.am 1 <0> -0.4690
  12   N3       20.0469   -1.1573   32.4199 N.pl3 1 <0> -0.8501
  13   O1       18.7676   -2.3524   26.1510  O.3 1 <0> -1.0332
  14   O2       20.3972   -0.3812   26.2318  O.3 1 <0> -1.0332
  15   O3       16.9764    2.2299   31.9564  O.2 1 <0> -0.5698
  16   O4       18.9314   -0.7527   24.1606  O.2 1 <0> -1.0332
  17   O5       16.4817    1.2498   28.0074  O.3 1 <0> -0.5601
  18   O6       15.7800    4.1615   27.3737  O.3 1 <0> -0.6802
  19   O7       17.9091   -0.0135   26.3390  O.3 1 <0> -0.5513
  20   P1       19.0969   -0.9440   25.6653  P.3 1 <0>  1.3711
  21   H1       19.9138   -1.3169   29.7279    H 1 <0>  0.1500
  22   H2       18.4557    0.1593   28.3620    H 1 <0>  0.1500
  23   H3       18.6978    3.1479   28.6197    H 1 <0>  0.0000
  24   H4       17.3767    4.1201   29.2693    H 1 <0>  0.0000
  25   H5       17.6767    3.9732   26.6077    H 1 <0>  0.0000
  26   H6       15.8486    1.9551   26.1794    H 1 <0>  0.0000
  27   H7       15.9751    2.3001   29.7249    H 1 <0>  0.0000
  28   H8       18.8490    1.8078   26.4511    H 1 <0>  0.0000
  29   H9       17.8303    1.5497   25.0110    H 1 <0>  0.0000
  30  H10       20.6086   -1.8382   31.9686    H 1 <0>  0.3999
  31  H11       20.0251   -1.0203   33.4015    H 1 <0>  0.3999
  32  H12       15.4805    4.4168   26.4980    H 1 <0>  0.3999
@<TRIPOS>BOND
    1     1     2  1
    2     1     3  1
    3     2    11  1
    4     3    10  1
    5     3    12  1
    6     4    10  1
    7     4    11  1
    8     4    15  1
    9     5     6  1
   10     5     8  1
   11     6     7  1
   12     6    18  1
   13     7     9  1
   14     7    17  1
   15     8    11  1
   16     8    17  1
   17     9    19  1
   18    13    20  1
   19    14    20  1
   20    16    20  1
   21    19    20  1
   22     1    21  1
   23     2    22  1
   24     5    23  1
   25     5    24  1
   26     6    25  1
   27     7    26  1
   28     8    27  1
   29     9    28  1
   30     9    29  1
   31    12    30  1
   32    12    31  1
   33    18    32  1

@<TRIPOS>MOLECULE
MOL
   32   33    0    0    0
SMALL
USER_CHARGES


@<TRIPOS>ATOM
   1   C1       19.3257   -0.4899   30.1808  C.2 1 <0> -0.1356
   2   C2       18.5288    0.2903   29.4534  C.2 1 <0> -0.0410
   3   C3       19.3045   -0.2678   31.6502  C.2 1 <0>  0.4856
   4   C4       17.7219    1.4459   31.4204  C.2 1 <0>  0.8408
   5   C5       17.6098    3.2824   28.6158  C.3 1 <0>  0.0000
   6   C6       16.9965    3.4483   27.2445  C.3 1 <0>  0.2800
   7   C7       16.7283    2.0138   26.8111  C.3 1 <0>  0.2800
   8   C8       16.8929    2.0532   29.1500  C.3 1 <0>  0.5801
   9   C9       17.9106    1.3823   26.0876  C.3 1 <0>  0.2800
  10   N1       18.5435    0.6449   32.1949  N.2 1 <0> -0.6611
  11   N2       17.7169    1.2614   30.0159 N.am 1 <0> -0.4690
  12   N3       20.1134   -1.0534   32.4379 N.pl3 1 <0> -0.8501
  13   O1       18.7676   -2.3524   26.1510  O.3 1 <0> -1.0332
  14   O2       20.3972   -0.3812   26.2318  O.3 1 <0> -1.0332
  15   O3       17.0116    2.3018   31.9510  O.2 1 <0> -0.5698
  16   O4       18.9314   -0.7527   24.1606  O.2 1 <0> -1.0332
  17   O5       16.4967    1.2641   28.0194  O.3 1 <0> -0.5601
  18   O6       15.7662    4.1611   27.3515  O.3 1 <0> -0.6802
  19   O7       17.9091   -0.0135   26.3390  O.3 1 <0> -0.5513
  20   P1       19.0969   -0.9440   25.6653  P.3 1 <0>  1.3711
  21   H1       19.9624   -1.2506   29.7493    H 1 <0>  0.1500
  22   H2       18.4822    0.1949   28.3742    H 1 <0>  0.1500
  23   H3       18.7013    3.1885   28.5898    H 1 <0>  0.0000
  24   H4       17.3767    4.1586   29.2358    H 1 <0>  0.0000
  25   H5       17.6589    3.9780   26.5743    H 1 <0>  0.0000
  26   H6       15.8446    1.9393   26.1867    H 1 <0>  0.0000
  27   H7       15.9936    2.3334   29.7262    H 1 <0>  0.0000
  28   H8       18.8490    1.8078   26.4511    H 1 <0>  0.0000
  29   H9       17.8303    1.5497   25.0110    H 1 <0>  0.0000
  30  H10       20.6775   -1.7357   31.9917    H 1 <0>  0.3999
  31  H11       20.0975   -0.9033   33.4177    H 1 <0>  0.3999
  32  H12       15.4583    4.4020   26.4747    H 1 <0>  0.3999
@<TRIPOS>BOND
    1     1     2  1
    2     1     3  1
    3     2    11  1
    4     3    10  1
    5     3    12  1
    6     4    10  1
    7     4    11  1
    8     4    15  1
    9     5     6  1
   10     5     8  1
   11     6     7  1
   12     6    18  1
   13     7     9  1
   14     7    17  1
   15     8    11  1
   16     8    17  1
   17     9    19  1
   18    13    20  1
   19    14    20  1
   20    16    20  1
   21    19    20  1
   22     1    21  1
   23     2    22  1
   24     5    23  1
   25     5    24  1
   26     6    25  1
   27     7    26  1
   28     8    27  1
   29     9    28  1
   30     9    29  1
   31    12    30  1
   32    12    31  1
   33    18    32  1

@<TRIPOS>MOLECULE
MOL
   32   33    0    0    0
SMALL
USER_CHARGES


@<TRIPOS>ATOM
   1   C1       19.3706   -0.4224   30.1953  C.2 1 <0> -0.1356
   2   C2       18.5620    0.3412   29.4633  C.2 1 <0> -0.0410
   3   C3       19.3581   -0.1806   31.6616  C.2 1 <0>  0.4856
   4   C4       17.7596    1.5168   31.4203  C.2 1 <0>  0.8408
   5   C5       17.6121    3.3140   28.5920  C.3 1 <0>  0.0000
   6   C6       16.9877    3.4562   27.2231  C.3 1 <0>  0.2800
   7   C7       16.7283    2.0138   26.8111  C.3 1 <0>  0.2800
   8   C8       16.9094    2.0863   29.1480  C.3 1 <0>  0.5801
   9   C9       17.9106    1.3823   26.0876  C.3 1 <0>  0.2800
  10   N1       18.5934    0.7331   32.1995  N.2 1 <0> -0.6611
  11   N2       17.7461    1.3132   30.0184 N.am 1 <0> -0.4690
  12   N3       20.1792   -0.9487   32.4540 N.pl3 1 <0> -0.8501
  13   O1       18.7676   -2.3524   26.1510  O.3 1 <0> -1.0332
  14   O2       20.3972   -0.3812   26.2318  O.3 1 <0> -1.0332
  15   O3       17.0460    2.3739   31.9445  O.2 1 <0> -0.5698
  16   O4       18.9314   -0.7527   24.1606  O.2 1 <0> -1.0332
  17   O5       16.5116    1.2787   28.0310  O.3 1 <0> -0.5601
  18   O6       15.7522    4.1602   27.3294  O.3 1 <0> -0.6802
  19   O7       17.9091   -0.0135   26.3390  O.3 1 <0> -0.5513
  20   P1       19.0969   -0.9440   25.6653  P.3 1 <0>  1.3711
  21   H1       20.0105   -1.1837   29.7695    H 1 <0>  0.1500
  22   H2       18.5084    0.2308   28.3859    H 1 <0>  0.1500
  23   H3       18.7041    3.2288   28.5593    H 1 <0>  0.0000
  24   H4       17.3762    4.1966   29.2018    H 1 <0>  0.0000
  25   H5       17.6407    3.9822   26.5410    H 1 <0>  0.0000
  26   H6       15.8408    1.9235   26.1942    H 1 <0>  0.0000
  27   H7       16.0119    2.3669   29.7269    H 1 <0>  0.0000
  28   H8       18.8490    1.8078   26.4511    H 1 <0>  0.0000
  29   H9       17.8303    1.5497   25.0110    H 1 <0>  0.0000
  30  H10       20.7457   -1.6324   32.0130    H 1 <0>  0.3999
  31  H11       20.1691   -0.7855   33.4318    H 1 <0>  0.3999
  32  H12       15.4360    4.3867   26.4517    H 1 <0>  0.3999
@<TRIPOS>BOND
    1     1     2  1
    2     1     3  1
    3     2    11  1
    4     3    10  1
    5     3    12  1
    6     4    10  1
    7     4    11  1
    8     4    15  1
    9     5     6  1
   10     5     8  1
   11     6     7  1
   12     6    18  1
   13     7     9  1
   14     7    17  1
   15     8    11  1
   16     8    17  1
   17     9    19  1
   18    13    20  1
   19    14    20  1
   20    16    20  1
   21    19    20  1
   22     1    21  1
   23     2    22  1
   24     5    23  1
   25     5    24  1
   26     6    25  1
   27     7    26  1
   28     8    27  1
   29     9    28  1
   30     9    29  1
   31    12    30  1
   32    12    31  1
   33    18    32  1

@<TRIPOS>MOLECULE
MOL
   32   33    0    0    0
SMALL
USER_CHARGES


@<TRIPOS>ATOM
   1   C1       19.4150   -0.3544   30.2086  C.2 1 <0> -0.1356
   2   C2       18.5949    0.3926   29.4722  C.2 1 <0> -0.0410
   3   C3       19.4110   -0.0928   31.6716  C.2 1 <0>  0.4856
   4   C4       17.7968    1.5879   31.4189  C.2 1 <0>  0.8408
   5   C5       17.6140    3.3453   28.5677  C.3 1 <0>  0.0000
   6   C6       16.9786    3.4638   27.2017  C.3 1 <0>  0.2800
   7   C7       16.7283    2.0138   26.8111  C.3 1 <0>  0.2800
   8   C8       16.9255    2.1195   29.1455  C.3 1 <0>  0.5801
   9   C9       17.9106    1.3823   26.0876  C.3 1 <0>  0.2800
  10   N1       18.6427    0.8218   32.2026  N.2 1 <0> -0.6611
  11   N2       17.7749    1.3652   30.0201 N.am 1 <0> -0.4690
  12   N3       20.2442   -0.8433   32.4683 N.pl3 1 <0> -0.8501
  13   O1       18.7676   -2.3524   26.1510  O.3 1 <0> -1.0332
  14   O2       20.3972   -0.3812   26.2318  O.3 1 <0> -1.0332
  15   O3       17.0799    2.4461   31.9367  O.2 1 <0> -0.5698
  16   O4       18.9314   -0.7527   24.1606  O.2 1 <0> -1.0332
  17   O5       16.5265    1.2935   28.0424  O.3 1 <0> -0.5601
  18   O6       15.7381    4.1589   27.3075  O.3 1 <0> -0.6802
  19   O7       17.9091   -0.0135   26.3390  O.3 1 <0> -0.5513
  20   P1       19.0969   -0.9440   25.6653  P.3 1 <0>  1.3711
  21   H1       20.0582   -1.1160   29.7885    H 1 <0>  0.1500
  22   H2       18.5345    0.2670   28.3968    H 1 <0>  0.1500
  23   H3       18.7064    3.2686   28.5283    H 1 <0>  0.0000
  24   H4       17.3752    4.2341   29.1673    H 1 <0>  0.0000
  25   H5       17.6223    3.9858   26.5077    H 1 <0>  0.0000
  26   H6       15.8372    1.9078   26.2020    H 1 <0>  0.0000
  27   H7       16.0300    2.4006   29.7270    H 1 <0>  0.0000
  28   H8       18.8490    1.8078   26.4511    H 1 <0>  0.0000
  29   H9       17.8303    1.5497   25.0110    H 1 <0>  0.0000
  30  H10       20.8132   -1.5282   32.0324    H 1 <0>  0.3999
  31  H11       20.2398   -0.6669   33.4438    H 1 <0>  0.3999
  32  H12       15.4137    4.3708   26.4291    H 1 <0>  0.3999
@<TRIPOS>BOND
    1     1     2  1
    2     1     3  1
    3     2    11  1
    4     3    10  1
    5     3    12  1
    6     4    10  1
    7     4    11  1
    8     4    15  1
    9     5     6  1
   10     5     8  1
   11     6     7  1
   12     6    18  1
   13     7     9  1
   14     7    17  1
   15     8    11  1
   16     8    17  1
   17     9    19  1
   18    13    20  1
   19    14    20  1
   20    16    20  1
   21    19    20  1
   22     1    21  1
   23     2    22  1
   24     5    23  1
   25     5    24  1
   26     6    25  1
   27     7    26  1
   28     8    27  1
   29     9    28  1
   30     9    29  1
   31    12    30  1
   32    12    31  1
   33    18    32  1

@<TRIPOS>MOLECULE
MOL
   32   33    0    0    0
SMALL
USER_CHARGES


@<TRIPOS>ATOM
   1   C1       19.4590   -0.2858   30.2206  C.2 1 <0> -0.1356
   2   C2       18.6274    0.4443   29.4802  C.2 1 <0> -0.0410
   3   C3       19.4633   -0.0044   31.6799  C.2 1 <0>  0.4856
   4   C4       17.8334    1.6593   31.4164  C.2 1 <0>  0.8408
   5   C5       17.6155    3.3763   28.5431  C.3 1 <0>  0.0000
   6   C6       16.9693    3.4709   27.1802  C.3 1 <0>  0.2800
   7   C7       16.7283    2.0138   26.8111  C.3 1 <0>  0.2800
   8   C8       16.9414    2.1528   29.1423  C.3 1 <0>  0.5801
   9   C9       17.9106    1.3823   26.0876  C.3 1 <0>  0.2800
  10   N1       18.6912    0.9110   32.2041  N.2 1 <0> -0.6611
  11   N2       17.8033    1.4175   30.0209 N.am 1 <0> -0.4690
  12   N3       20.3084   -0.7371   32.4806 N.pl3 1 <0> -0.8501
  13   O1       18.7676   -2.3524   26.1510  O.3 1 <0> -1.0332
  14   O2       20.3972   -0.3812   26.2318  O.3 1 <0> -1.0332
  15   O3       17.1130    2.5186   31.9277  O.2 1 <0> -0.5698
  16   O4       18.9314   -0.7527   24.1606  O.2 1 <0> -1.0332
  17   O5       16.5414    1.3087   28.0535  O.3 1 <0> -0.5601
  18   O6       15.7239    4.1572   27.2856  O.3 1 <0> -0.6802
  19   O7       17.9091   -0.0135   26.3390  O.3 1 <0> -0.5513
  20   P1       19.0969   -0.9440   25.6653  P.3 1 <0>  1.3711
  21   H1       20.1055   -1.0478   29.8061    H 1 <0>  0.1500
  22   H2       18.5604    0.3037   28.4070    H 1 <0>  0.1500
  23   H3       18.7082    3.3081   28.4967    H 1 <0>  0.0000
  24   H4       17.3735    4.2711   29.1323    H 1 <0>  0.0000
  25   H5       17.6036    3.9888   26.4746    H 1 <0>  0.0000
  26   H6       15.8338    1.8922   26.2100    H 1 <0>  0.0000
  27   H7       16.0477    2.4343   29.7265    H 1 <0>  0.0000
  28   H8       18.8490    1.8078   26.4511    H 1 <0>  0.0000
  29   H9       17.8303    1.5497   25.0110    H 1 <0>  0.0000
  30  H10       20.8800   -1.4232   32.0499    H 1 <0>  0.3999
  31  H11       20.3095   -0.5476   33.4536    H 1 <0>  0.3999
  32  H12       15.3914    4.3545   26.4069    H 1 <0>  0.3999
@<TRIPOS>BOND
    1     1     2  1
    2     1     3  1
    3     2    11  1
    4     3    10  1
    5     3    12  1
    6     4    10  1
    7     4    11  1
    8     4    15  1
    9     5     6  1
   10     5     8  1
   11     6     7  1
   12     6    18  1
   13     7     9  1
   14     7    17  1
   15     8    11  1
   16     8    17  1
   17     9    19  1
   18    13    20  1
   19    14    20  1
   20    16    20  1
   21    19    20  1
   22     1    21  1
   23     2    22  1
   24     5    23  1
   25     5    24  1
   26     6    25  1
   27     7    26  1
   28     8    27  1
   29     9    28  1
   30     9    29  1
   31    12    30  1
   32    12    31  1
   33    18    32  1

@<TRIPOS>MOLECULE
MOL
   32   33    0    0    0
SMALL
USER_CHARGES


@<TRIPOS>ATOM
   1   C1       19.5025   -0.2167   30.2314  C.2 1 <0> -0.1356
   2   C2       18.6595    0.4964   29.4872  C.2 1 <0> -0.0410
   3   C3       19.5149    0.0845   31.6867  C.2 1 <0>  0.4856
   4   C4       17.8693    1.7310   31.4126  C.2 1 <0>  0.8408
   5   C5       17.6165    3.4069   28.5180  C.3 1 <0>  0.0000
   6   C6       16.9598    3.4778   27.1587  C.3 1 <0>  0.2800
   7   C7       16.7283    2.0138   26.8111  C.3 1 <0>  0.2800
   8   C8       16.9569    2.1862   29.1386  C.3 1 <0>  0.5801
   9   C9       17.9106    1.3823   26.0876  C.3 1 <0>  0.2800
  10   N1       18.7390    1.0005   32.2041  N.2 1 <0> -0.6611
  11   N2       17.8312    1.4700   30.0207 N.am 1 <0> -0.4690
  12   N3       20.3718   -0.6303   32.4910 N.pl3 1 <0> -0.8501
  13   O1       18.7676   -2.3524   26.1510  O.3 1 <0> -1.0332
  14   O2       20.3972   -0.3812   26.2318  O.3 1 <0> -1.0332
  15   O3       17.1455    2.5911   31.9174  O.2 1 <0> -0.5698
  16   O4       18.9314   -0.7527   24.1606  O.2 1 <0> -1.0332
  17   O5       16.5562    1.3241   28.0642  O.3 1 <0> -0.5601
  18   O6       15.7095    4.1551   27.2639  O.3 1 <0> -0.6802
  19   O7       17.9091   -0.0135   26.3390  O.3 1 <0> -0.5513
  20   P1       19.0969   -0.9440   25.6653  P.3 1 <0>  1.3711
  21   H1       20.1523   -0.9789   29.8225    H 1 <0>  0.1500
  22   H2       18.5860    0.3406   28.4166    H 1 <0>  0.1500
  23   H3       18.7093    3.3471   28.4645    H 1 <0>  0.0000
  24   H4       17.3713    4.3077   29.0968    H 1 <0>  0.0000
  25   H5       17.5847    3.9912   26.4416    H 1 <0>  0.0000
  26   H6       15.8305    1.8767   26.2182    H 1 <0>  0.0000
  27   H7       16.0652    2.4683   29.7255    H 1 <0>  0.0000
  28   H8       18.8490    1.8078   26.4511    H 1 <0>  0.0000
  29   H9       17.8303    1.5497   25.0110    H 1 <0>  0.0000
  30  H10       20.9460   -1.3174   32.0654    H 1 <0>  0.3999
  31  H11       20.3784   -0.4275   33.4614    H 1 <0>  0.3999
  32  H12       15.3691    4.3377   26.3850    H 1 <0>  0.3999
@<TRIPOS>BOND
    1     1     2  1
    2     1     3  1
    3     2    11  1
    4     3    10  1
    5     3    12  1
    6     4    10  1
    7     4    11  1
    8     4    15  1
    9     5     6  1
   10     5     8  1
   11     6     7  1
   12     6    18  1
   13     7     9  1
   14     7    17  1
   15     8    11  1
   16     8    17  1
   17     9    19  1
   18    13    20  1
   19    14    20  1
   20    16    20  1
   21    19    20  1
   22     1    21  1
   23     2    22  1
   24     5    23  1
   25     5    24  1
   26     6    25  1
   27     7    26  1
   28     8    27  1
   29     9    28  1
   30     9    29  1
   31    12    30  1
   32    12    31  1
   33    18    32  1

@<TRIPOS>MOLECULE
MOL
   32   33    0    0    0
SMALL
USER_CHARGES


@<TRIPOS>ATOM
   1   C1       19.5455   -0.1472   30.2409  C.2 1 <0> -0.1356
   2   C2       18.6913    0.5488   29.4933  C.2 1 <0> -0.0410
   3   C3       19.5659    0.1739   31.6918  C.2 1 <0>  0.4856
   4   C4       17.9047    1.8029   31.4075  C.2 1 <0>  0.8408
   5   C5       17.6171    3.4373   28.4925  C.3 1 <0>  0.0000
   6   C6       16.9500    3.4842   27.1372  C.3 1 <0>  0.2800
   7   C7       16.7283    2.0138   26.8111  C.3 1 <0>  0.2800
   8   C8       16.9722    2.2197   29.1343  C.3 1 <0>  0.5801
   9   C9       17.9106    1.3823   26.0876  C.3 1 <0>  0.2800
  10   N1       18.7861    1.0904   32.2025  N.2 1 <0> -0.6611
  11   N2       17.8587    1.5227   30.0196 N.am 1 <0> -0.4690
  12   N3       20.4344   -0.5228   32.4995 N.pl3 1 <0> -0.8501
  13   O1       18.7676   -2.3524   26.1510  O.3 1 <0> -1.0332
  14   O2       20.3972   -0.3812   26.2318  O.3 1 <0> -1.0332
  15   O3       17.1774    2.6638   31.9060  O.2 1 <0> -0.5698
  16   O4       18.9314   -0.7527   24.1606  O.2 1 <0> -1.0332
  17   O5       16.5709    1.3398   28.0746  O.3 1 <0> -0.5601
  18   O6       15.6949    4.1526   27.2424  O.3 1 <0> -0.6802
  19   O7       17.9091   -0.0135   26.3390  O.3 1 <0> -0.5513
  20   P1       19.0969   -0.9440   25.6653  P.3 1 <0>  1.3711
  21   H1       20.1987   -0.9094   29.8377    H 1 <0>  0.1500
  22   H2       18.6113    0.3780   28.4255    H 1 <0>  0.1500
  23   H3       18.7100    3.3857   28.4319    H 1 <0>  0.0000
  24   H4       17.3686    4.3437   29.0608    H 1 <0>  0.0000
  25   H5       17.5655    3.9930   26.4086    H 1 <0>  0.0000
  26   H6       15.8275    1.8613   26.2267    H 1 <0>  0.0000
  27   H7       16.0824    2.5023   29.7238    H 1 <0>  0.0000
  28   H8       18.8490    1.8078   26.4511    H 1 <0>  0.0000
  29   H9       17.8303    1.5497   25.0110    H 1 <0>  0.0000
  30  H10       21.0112   -1.2109   32.0791    H 1 <0>  0.3999
  31  H11       20.4462   -0.3069   33.4670    H 1 <0>  0.3999
  32  H12       15.3467    4.3204   26.3636    H 1 <0>  0.3999
@<TRIPOS>BOND
    1     1     2  1
    2     1     3  1
    3     2    11  1
    4     3    10  1
    5     3    12  1
    6     4    10  1
    7     4    11  1
    8     4    15  1
    9     5     6  1
   10     5     8  1
   11     6     7  1
   12     6    18  1
   13     7     9  1
   14     7    17  1
   15     8    11  1
   16     8    17  1
   17     9    19  1
   18    13    20  1
   19    14    20  1
   20    16    20  1
   21    19    20  1
   22     1    21  1
   23     2    22  1
   24     5    23  1
   25     5    24  1
   26     6    25  1
   27     7    26  1
   28     8    27  1
   29     9    28  1
   30     9    29  1
   31    12    30  1
   32    12    31  1
   33    18    32  1

@<TRIPOS>MOLECULE
MOL
   32   33    0    0    0
SMALL
USER_CHARGES


@<TRIPOS>ATOM
   1   C1       19.5880   -0.0771   30.2491  C.2 1 <0> -0.1356
   2   C2       18.7226    0.6016   29.4985  C.2 1 <0> -0.0410
   3   C3       19.6161    0.2638   31.6954  C.2 1 <0>  0.4856
   4   C4       17.9393    1.8751   31.4012  C.2 1 <0>  0.8408
   5   C5       17.6172    3.4672   28.4666  C.3 1 <0>  0.0000
   6   C6       16.9401    3.4903   27.1157  C.3 1 <0>  0.2800
   7   C7       16.7283    2.0138   26.8111  C.3 1 <0>  0.2800
   8   C8       16.9872    2.2532   29.1295  C.3 1 <0>  0.5801
   9   C9       17.9106    1.3823   26.0876  C.3 1 <0>  0.2800
  10   N1       18.8323    1.1807   32.1993  N.2 1 <0> -0.6611
  11   N2       17.8858    1.5756   30.0177 N.am 1 <0> -0.4690
  12   N3       20.4962   -0.4148   32.5061 N.pl3 1 <0> -0.8501
  13   O1       18.7676   -2.3524   26.1510  O.3 1 <0> -1.0332
  14   O2       20.3972   -0.3812   26.2318  O.3 1 <0> -1.0332
  15   O3       17.2085    2.7366   31.8933  O.2 1 <0> -0.5698
  16   O4       18.9314   -0.7527   24.1606  O.2 1 <0> -1.0332
  17   O5       16.5856    1.3557   28.0848  O.3 1 <0> -0.5601
  18   O6       15.6802    4.1497   27.2209  O.3 1 <0> -0.6802
  19   O7       17.9091   -0.0135   26.3390  O.3 1 <0> -0.5513
  20   P1       19.0969   -0.9440   25.6653  P.3 1 <0>  1.3711
  21   H1       20.2446   -0.8394   29.8515    H 1 <0>  0.1500
  22   H2       18.6364    0.4156   28.4337    H 1 <0>  0.1500
  23   H3       18.7100    3.4239   28.3987    H 1 <0>  0.0000
  24   H4       17.3652    4.3792   29.0244    H 1 <0>  0.0000
  25   H5       17.5461    3.9942   26.3758    H 1 <0>  0.0000
  26   H6       15.8246    1.8460   26.2354    H 1 <0>  0.0000
  27   H7       16.0993    2.5365   29.7216    H 1 <0>  0.0000
  28   H8       18.8490    1.8078   26.4511    H 1 <0>  0.0000
  29   H9       17.8303    1.5497   25.0110    H 1 <0>  0.0000
  30  H10       21.0757   -1.1037   32.0908    H 1 <0>  0.3999
  31  H11       20.5132   -0.1856   33.4704    H 1 <0>  0.3999
  32  H12       15.3244    4.3027   26.3425    H 1 <0>  0.3999
@<TRIPOS>BOND
    1     1     2  1
    2     1     3  1
    3     2    11  1
    4     3    10  1
    5     3    12  1
    6     4    10  1
    7     4    11  1
    8     4    15  1
    9     5     6  1
   10     5     8  1
   11     6     7  1
   12     6    18  1
   13     7     9  1
   14     7    17  1
   15     8    11  1
   16     8    17  1
   17     9    19  1
   18    13    20  1
   19    14    20  1
   20    16    20  1
   21    19    20  1
   22     1    21  1
   23     2    22  1
   24     5    23  1
   25     5    24  1
   26     6    25  1
   27     7    26  1
   28     8    27  1
   29     9    28  1
   30     9    29  1
   31    12    30  1
   32    12    31  1
   33    18    32  1

@<TRIPOS>MOLECULE
MOL
   32   33    0    0    0
SMALL
USER_CHARGES


@<TRIPOS>ATOM
   1   C1       19.6299   -0.0066   30.2561  C.2 1 <0> -0.1356
   2   C2       18.7536    0.6547   29.5027  C.2 1 <0> -0.0410
   3   C3       19.6656    0.3541   31.6975  C.2 1 <0>  0.4856
   4   C4       17.9734    1.9474   31.3937  C.2 1 <0>  0.8408
   5   C5       17.6169    3.4969   28.4402  C.3 1 <0>  0.0000
   6   C6       16.9300    3.4960   27.0941  C.3 1 <0>  0.2800
   7   C7       16.7283    2.0138   26.8111  C.3 1 <0>  0.2800
   8   C8       17.0018    2.2868   29.1241  C.3 1 <0>  0.5801
   9   C9       17.9106    1.3823   26.0876  C.3 1 <0>  0.2800
  10   N1       18.8778    1.2713   32.1946  N.2 1 <0> -0.6611
  11   N2       17.9124    1.6288   30.0148 N.am 1 <0> -0.4690
  12   N3       20.5571   -0.3061   32.5108 N.pl3 1 <0> -0.8501
  13   O1       18.7676   -2.3524   26.1510  O.3 1 <0> -1.0332
  14   O2       20.3972   -0.3812   26.2318  O.3 1 <0> -1.0332
  15   O3       17.2389    2.8095   31.8795  O.2 1 <0> -0.5698
  16   O4       18.9314   -0.7527   24.1606  O.2 1 <0> -1.0332
  17   O5       16.6003    1.3719   28.0945  O.3 1 <0> -0.5601
  18   O6       15.6654    4.1463   27.1997  O.3 1 <0> -0.6802
  19   O7       17.9091   -0.0135   26.3390  O.3 1 <0> -0.5513
  20   P1       19.0969   -0.9440   25.6653  P.3 1 <0>  1.3711
  21   H1       20.2900   -0.7688   29.8641    H 1 <0>  0.1500
  22   H2       18.6613    0.4536   28.4412    H 1 <0>  0.1500
  23   H3       18.7096    3.4616   28.3650    H 1 <0>  0.0000
  24   H4       17.3614    4.4142   28.9875    H 1 <0>  0.0000
  25   H5       17.5264    3.9948   26.3432    H 1 <0>  0.0000
  26   H6       15.8219    1.8307   26.2443    H 1 <0>  0.0000
  27   H7       16.1158    2.5707   29.7188    H 1 <0>  0.0000
  28   H8       18.8490    1.8078   26.4511    H 1 <0>  0.0000
  29   H9       17.8303    1.5497   25.0110    H 1 <0>  0.0000
  30  H10       21.1393   -0.9958   32.1006    H 1 <0>  0.3999
  31  H11       20.5791   -0.0637   33.4718    H 1 <0>  0.3999
  32  H12       15.3020    4.2845   26.3219    H 1 <0>  0.3999
@<TRIPOS>BOND
    1     1     2  1
    2     1     3  1
    3     2    11  1
    4     3    10  1
    5     3    12  1
    6     4    10  1
    7     4    11  1
    8     4    15  1
    9     5     6  1
   10     5     8  1
   11     6     7  1
   12     6    18  1
   13     7     9  1
   14     7    17  1
   15     8    11  1
   16     8    17  1
   17     9    19  1
   18    13    20  1
   19    14    20  1
   20    16    20  1
   21    19    20  1
   22     1    21  1
   23     2    22  1
   24     5    23  1
   25     5    24  1
   26     6    25  1
   27     7    26  1
   28     8    27  1
   29     9    28  1
   30     9    29  1
   31    12    30  1
   32    12    31  1
   33    18    32  1

@<TRIPOS>MOLECULE
MOL
   32   33    0    0    0
SMALL
USER_CHARGES


@<TRIPOS>ATOM
   1   C1       19.6713    0.0643   30.2619  C.2 1 <0> -0.1356
   2   C2       18.7841    0.7081   29.5060  C.2 1 <0> -0.0410
   3   C3       19.7143    0.4449   31.6979  C.2 1 <0>  0.4856
   4   C4       18.0068    2.0199   31.3850  C.2 1 <0>  0.8408
   5   C5       17.6162    3.5261   28.4135  C.3 1 <0>  0.0000
   6   C6       16.9196    3.5013   27.0726  C.3 1 <0>  0.2800
   7   C7       16.7283    2.0138   26.8111  C.3 1 <0>  0.2800
   8   C8       17.0161    2.3204   29.1181  C.3 1 <0>  0.5801
   9   C9       17.9106    1.3823   26.0876  C.3 1 <0>  0.2800
  10   N1       18.9226    1.3622   32.1883  N.2 1 <0> -0.6611
  11   N2       17.9385    1.6821   30.0110 N.am 1 <0> -0.4690
  12   N3       20.6171   -0.1969   32.5135 N.pl3 1 <0> -0.8501
  13   O1       18.7676   -2.3524   26.1510  O.3 1 <0> -1.0332
  14   O2       20.3972   -0.3812   26.2318  O.3 1 <0> -1.0332
  15   O3       17.2687    2.8824   31.8644  O.2 1 <0> -0.5698
  16   O4       18.9314   -0.7527   24.1606  O.2 1 <0> -1.0332
  17   O5       16.6148    1.3884   28.1040  O.3 1 <0> -0.5601
  18   O6       15.6505    4.1426   27.1785  O.3 1 <0> -0.6802
  19   O7       17.9091   -0.0135   26.3390  O.3 1 <0> -0.5513
  20   P1       19.0969   -0.9440   25.6653  P.3 1 <0>  1.3711
  21   H1       20.3349   -0.6976   29.8754    H 1 <0>  0.1500
  22   H2       18.6859    0.4918   28.4480    H 1 <0>  0.1500
  23   H3       18.7085    3.4988   28.3308    H 1 <0>  0.0000
  24   H4       17.3569    4.4487   28.9502    H 1 <0>  0.0000
  25   H5       17.5065    3.9947   26.3106    H 1 <0>  0.0000
  26   H6       15.8194    1.8156   26.2535    H 1 <0>  0.0000
  27   H7       16.1321    2.6051   29.7154    H 1 <0>  0.0000
  28   H8       18.8490    1.8078   26.4511    H 1 <0>  0.0000
  29   H9       17.8303    1.5497   25.0110    H 1 <0>  0.0000
  30  H10       21.2021   -0.8872   32.1085    H 1 <0>  0.3999
  31  H11       20.6440    0.0587   33.4710    H 1 <0>  0.3999
  32  H12       15.2796    4.2658   26.3017    H 1 <0>  0.3999
@<TRIPOS>BOND
    1     1     2  1
    2     1     3  1
    3     2    11  1
    4     3    10  1
    5     3    12  1
    6     4    10  1
    7     4    11  1
    8     4    15  1
    9     5     6  1
   10     5     8  1
   11     6     7  1
   12     6    18  1
   13     7     9  1
   14     7    17  1
   15     8    11  1
   16     8    17  1
   17     9    19  1
   18    13    20  1
   19    14    20  1
   20    16    20  1
   21    19    20  1
   22     1    21  1
   23     2    22  1
   24     5    23  1
   25     5    24  1
   26     6    25  1
   27     7    26  1
   28     8    27  1
   29     9    28  1
   30     9    29  1
   31    12    30  1
   32    12    31  1
   33    18    32  1

@<TRIPOS>MOLECULE
MOL
   32   33    0    0    0
SMALL
USER_CHARGES


@<TRIPOS>ATOM
   1   C1       19.7122    0.1357   30.2664  C.2 1 <0> -0.1356
   2   C2       18.8142    0.7618   29.5084  C.2 1 <0> -0.0410
   3   C3       19.7623    0.5360   31.6968  C.2 1 <0>  0.4856
   4   C4       18.0395    2.0925   31.3751  C.2 1 <0>  0.8408
   5   C5       17.6150    3.5550   28.3864  C.3 1 <0>  0.0000
   6   C6       16.9091    3.5062   27.0511  C.3 1 <0>  0.2800
   7   C7       16.7283    2.0138   26.8111  C.3 1 <0>  0.2800
   8   C8       17.0301    2.3541   29.1116  C.3 1 <0>  0.5801
   9   C9       17.9106    1.3823   26.0876  C.3 1 <0>  0.2800
  10   N1       18.9665    1.4533   32.1805  N.2 1 <0> -0.6611
  11   N2       17.9642    1.7355   30.0062 N.am 1 <0> -0.4690
  12   N3       20.6763   -0.0871   32.5144 N.pl3 1 <0> -0.8501
  13   O1       18.7676   -2.3524   26.1510  O.3 1 <0> -1.0332
  14   O2       20.3972   -0.3812   26.2318  O.3 1 <0> -1.0332
  15   O3       17.2977    2.9554   31.8481  O.2 1 <0> -0.5698
  16   O4       18.9314   -0.7527   24.1606  O.2 1 <0> -1.0332
  17   O5       16.6294    1.4051   28.1131  O.3 1 <0> -0.5601
  18   O6       15.6355    4.1384   27.1576  O.3 1 <0> -0.6802
  19   O7       17.9091   -0.0135   26.3390  O.3 1 <0> -0.5513
  20   P1       19.0969   -0.9440   25.6653  P.3 1 <0>  1.3711
  21   H1       20.3793   -0.6259   29.8853    H 1 <0>  0.1500
  22   H2       18.7102    0.5304   28.4541    H 1 <0>  0.1500
  23   H3       18.7069    3.5356   28.2961    H 1 <0>  0.0000
  24   H4       17.3520    4.4826   28.9125    H 1 <0>  0.0000
  25   H5       17.4863    3.9941   26.2782    H 1 <0>  0.0000
  26   H6       15.8171    1.8005   26.2628    H 1 <0>  0.0000
  27   H7       16.1481    2.6395   29.7114    H 1 <0>  0.0000
  28   H8       18.8490    1.8078   26.4511    H 1 <0>  0.0000
  29   H9       17.8303    1.5497   25.0110    H 1 <0>  0.0000
  30  H10       21.2641   -0.7781   32.1145    H 1 <0>  0.3999
  31  H11       20.7079    0.1817   33.4681    H 1 <0>  0.3999
  32  H12       15.2573    4.2467   26.2818    H 1 <0>  0.3999
@<TRIPOS>BOND
    1     1     2  1
    2     1     3  1
    3     2    11  1
    4     3    10  1
    5     3    12  1
    6     4    10  1
    7     4    11  1
    8     4    15  1
    9     5     6  1
   10     5     8  1
   11     6     7  1
   12     6    18  1
   13     7     9  1
   14     7    17  1
   15     8    11  1
   16     8    17  1
   17     9    19  1
   18    13    20  1
   19    14    20  1
   20    16    20  1
   21    19    20  1
   22     1    21  1
   23     2    22  1
   24     5    23  1
   25     5    24  1
   26     6    25  1
   27     7    26  1
   28     8    27  1
   29     9    28  1
   30     9    29  1
   31    12    30  1
   32    12    31  1
   33    18    32  1

@<TRIPOS>MOLECULE
MOL
   32   33    0    0    0
SMALL
USER_CHARGES


@<TRIPOS>ATOM
   1   C1       19.7525    0.2074   30.2696  C.2 1 <0> -0.1356
   2   C2       18.8439    0.8158   29.5097  C.2 1 <0> -0.0410
   3   C3       19.8095    0.6275   31.6940  C.2 1 <0>  0.4856
   4   C4       18.0715    2.1652   31.3639  C.2 1 <0>  0.8408
   5   C5       17.6134    3.5835   28.3589  C.3 1 <0>  0.0000
   6   C6       16.8984    3.5108   27.0295  C.3 1 <0>  0.2800
   7   C7       16.7283    2.0138   26.8111  C.3 1 <0>  0.2800
   8   C8       17.0438    2.3878   29.1046  C.3 1 <0>  0.5801
   9   C9       17.9106    1.3823   26.0876  C.3 1 <0>  0.2800
  10   N1       19.0096    1.5448   32.1711  N.2 1 <0> -0.6611
  11   N2       17.9894    1.7891   30.0006 N.am 1 <0> -0.4690
  12   N3       20.7345    0.0231   32.5133 N.pl3 1 <0> -0.8501
  13   O1       18.7676   -2.3524   26.1510  O.3 1 <0> -1.0332
  14   O2       20.3972   -0.3812   26.2318  O.3 1 <0> -1.0332
  15   O3       17.3259    3.0283   31.8306  O.2 1 <0> -0.5698
  16   O4       18.9314   -0.7527   24.1606  O.2 1 <0> -1.0332
  17   O5       16.6438    1.4220   28.1219  O.3 1 <0> -0.5601
  18   O6       15.6203    4.1338   27.1368  O.3 1 <0> -0.6802
  19   O7       17.9091   -0.0135   26.3390  O.3 1 <0> -0.5513
  20   P1       19.0969   -0.9440   25.6653  P.3 1 <0>  1.3711
  21   H1       20.4231   -0.5538   29.8940    H 1 <0>  0.1500
  22   H2       18.7343    0.5692   28.4595    H 1 <0>  0.1500
  23   H3       18.7048    3.5719   28.2609    H 1 <0>  0.0000
  24   H4       17.3464    4.5160   28.8743    H 1 <0>  0.0000
  25   H5       17.4659    3.9929   26.2460    H 1 <0>  0.0000
  26   H6       15.8150    1.7856   26.2724    H 1 <0>  0.0000
  27   H7       16.1637    2.6741   29.7068    H 1 <0>  0.0000
  28   H8       18.8490    1.8078   26.4511    H 1 <0>  0.0000
  29   H9       17.8303    1.5497   25.0110    H 1 <0>  0.0000
  30  H10       21.3252   -0.6683   32.1185    H 1 <0>  0.3999
  31  H11       20.7707    0.3051   33.4630    H 1 <0>  0.3999
  32  H12       15.2350    4.2271   26.2625    H 1 <0>  0.3999
@<TRIPOS>BOND
    1     1     2  1
    2     1     3  1
    3     2    11  1
    4     3    10  1
    5     3    12  1
    6     4    10  1
    7     4    11  1
    8     4    15  1
    9     5     6  1
   10     5     8  1
   11     6     7  1
   12     6    18  1
   13     7     9  1
   14     7    17  1
   15     8    11  1
   16     8    17  1
   17     9    19  1
   18    13    20  1
   19    14    20  1
   20    16    20  1
   21    19    20  1
   22     1    21  1
   23     2    22  1
   24     5    23  1
   25     5    24  1
   26     6    25  1
   27     7    26  1
   28     8    27  1
   29     9    28  1
   30     9    29  1
   31    12    30  1
   32    12    31  1
   33    18    32  1

@<TRIPOS>MOLECULE
MOL
   32   33    0    0    0
SMALL
USER_CHARGES


@<TRIPOS>ATOM
   1   C1       19.7922    0.2795   30.2716  C.2 1 <0> -0.1356
   2   C2       18.8732    0.8700   29.5102  C.2 1 <0> -0.0410
   3   C3       19.8559    0.7194   31.6897  C.2 1 <0>  0.4856
   4   C4       18.1028    2.2381   31.3515  C.2 1 <0>  0.8408
   5   C5       17.6114    3.6116   28.3311  C.3 1 <0>  0.0000
   6   C6       16.8874    3.5150   27.0080  C.3 1 <0>  0.2800
   7   C7       16.7283    2.0138   26.8111  C.3 1 <0>  0.2800
   8   C8       17.0571    2.4214   29.0969  C.3 1 <0>  0.5801
   9   C9       17.9106    1.3823   26.0876  C.3 1 <0>  0.2800
  10   N1       19.0518    1.6364   32.1602  N.2 1 <0> -0.6611
  11   N2       18.0141    1.8429   29.9941 N.am 1 <0> -0.4690
  12   N3       20.7918    0.1338   32.5103 N.pl3 1 <0> -0.8501
  13   O1       18.7676   -2.3524   26.1510  O.3 1 <0> -1.0332
  14   O2       20.3972   -0.3812   26.2318  O.3 1 <0> -1.0332
  15   O3       17.3535    3.1013   31.8120  O.2 1 <0> -0.5698
  16   O4       18.9314   -0.7527   24.1606  O.2 1 <0> -1.0332
  17   O5       16.6581    1.4392   28.1304  O.3 1 <0> -0.5601
  18   O6       15.6050    4.1289   27.1162  O.3 1 <0> -0.6802
  19   O7       17.9091   -0.0135   26.3390  O.3 1 <0> -0.5513
  20   P1       19.0969   -0.9440   25.6653  P.3 1 <0>  1.3711
  21   H1       20.4664   -0.4812   29.9014    H 1 <0>  0.1500
  22   H2       18.7580    0.6083   28.4642    H 1 <0>  0.1500
  23   H3       18.7021    3.6077   28.2253    H 1 <0>  0.0000
  24   H4       17.3403    4.5488   28.8357    H 1 <0>  0.0000
  25   H5       17.4453    3.9910   26.2139    H 1 <0>  0.0000
  26   H6       15.8131    1.7708   26.2822    H 1 <0>  0.0000
  27   H7       16.1790    2.7086   29.7017    H 1 <0>  0.0000
  28   H8       18.8490    1.8078   26.4511    H 1 <0>  0.0000
  29   H9       17.8303    1.5497   25.0110    H 1 <0>  0.0000
  30  H10       21.3854   -0.5581   32.1206    H 1 <0>  0.3999
  31  H11       20.8325    0.4289   33.4559    H 1 <0>  0.3999
  32  H12       15.2127    4.2070   26.2435    H 1 <0>  0.3999
@<TRIPOS>BOND
    1     1     2  1
    2     1     3  1
    3     2    11  1
    4     3    10  1
    5     3    12  1
    6     4    10  1
    7     4    11  1
    8     4    15  1
    9     5     6  1
   10     5     8  1
   11     6     7  1
   12     6    18  1
   13     7     9  1
   14     7    17  1
   15     8    11  1
   16     8    17  1
   17     9    19  1
   18    13    20  1
   19    14    20  1
   20    16    20  1
   21    19    20  1
   22     1    21  1
   23     2    22  1
   24     5    23  1
   25     5    24  1
   26     6    25  1
   27     7    26  1
   28     8    27  1
   29     9    28  1
   30     9    29  1
   31    12    30  1
   32    12    31  1
   33    18    32  1

@<TRIPOS>MOLECULE
MOL
   32   33    0    0    0
SMALL
USER_CHARGES


@<TRIPOS>ATOM
   1   C1       19.8313    0.3520   30.2722  C.2 1 <0> -0.1356
   2   C2       18.9019    0.9244   29.5097  C.2 1 <0> -0.0410
   3   C3       19.9016    0.8116   31.6838  C.2 1 <0>  0.4856
   4   C4       18.1335    2.3111   31.3379  C.2 1 <0>  0.8408
   5   C5       17.6089    3.6393   28.3029  C.3 1 <0>  0.0000
   6   C6       16.8763    3.5188   26.9866  C.3 1 <0>  0.2800
   7   C7       16.7283    2.0138   26.8111  C.3 1 <0>  0.2800
   8   C8       17.0701    2.4551   29.0888  C.3 1 <0>  0.5801
   9   C9       17.9106    1.3823   26.0876  C.3 1 <0>  0.2800
  10   N1       19.0932    1.7282   32.1477  N.2 1 <0> -0.6611
  11   N2       18.0383    1.8967   29.9866 N.am 1 <0> -0.4690
  12   N3       20.8482    0.2449   32.5054 N.pl3 1 <0> -0.8501
  13   O1       18.7676   -2.3524   26.1510  O.3 1 <0> -1.0332
  14   O2       20.3972   -0.3812   26.2318  O.3 1 <0> -1.0332
  15   O3       17.3803    3.1742   31.7921  O.2 1 <0> -0.5698
  16   O4       18.9314   -0.7527   24.1606  O.2 1 <0> -1.0332
  17   O5       16.6724    1.4566   28.1385  O.3 1 <0> -0.5601
  18   O6       15.5896    4.1235   27.0957  O.3 1 <0> -0.6802
  19   O7       17.9091   -0.0135   26.3390  O.3 1 <0> -0.5513
  20   P1       19.0969   -0.9440   25.6653  P.3 1 <0>  1.3711
  21   H1       20.5092   -0.4081   29.9075    H 1 <0>  0.1500
  22   H2       18.7815    0.6476   28.4682    H 1 <0>  0.1500
  23   H3       18.6988    3.6429   28.1892    H 1 <0>  0.0000
  24   H4       17.3337    4.5810   28.7968    H 1 <0>  0.0000
  25   H5       17.4245    3.9886   26.1820    H 1 <0>  0.0000
  26   H6       15.8114    1.7561   26.2922    H 1 <0>  0.0000
  27   H7       16.1940    2.7433   29.6959    H 1 <0>  0.0000
  28   H8       18.8490    1.8078   26.4511    H 1 <0>  0.0000
  29   H9       17.8303    1.5497   25.0110    H 1 <0>  0.0000
  30  H10       21.4447   -0.4473   32.1208    H 1 <0>  0.3999
  31  H11       20.8931    0.5532   33.4466    H 1 <0>  0.3999
  32  H12       15.1904    4.1866   26.2250    H 1 <0>  0.3999
@<TRIPOS>BOND
    1     1     2  1
    2     1     3  1
    3     2    11  1
    4     3    10  1
    5     3    12  1
    6     4    10  1
    7     4    11  1
    8     4    15  1
    9     5     6  1
   10     5     8  1
   11     6     7  1
   12     6    18  1
   13     7     9  1
   14     7    17  1
   15     8    11  1
   16     8    17  1
   17     9    19  1
   18    13    20  1
   19    14    20  1
   20    16    20  1
   21    19    20  1
   22     1    21  1
   23     2    22  1
   24     5    23  1
   25     5    24  1
   26     6    25  1
   27     7    26  1
   28     8    27  1
   29     9    28  1
   30     9    29  1
   31    12    30  1
   32    12    31  1
   33    18    32  1

@<TRIPOS>MOLECULE
MOL
   32   33    0    0    0
SMALL
USER_CHARGES


@<TRIPOS>ATOM
   1   C1       19.8698    0.4247   30.2717  C.2 1 <0> -0.1356
   2   C2       18.9303    0.9791   29.5083  C.2 1 <0> -0.0410
   3   C3       19.9464    0.9040   31.6764  C.2 1 <0>  0.4856
   4   C4       18.1634    2.3841   31.3232  C.2 1 <0>  0.8408
   5   C5       17.6060    3.6666   28.2743  C.3 1 <0>  0.0000
   6   C6       16.8650    3.5222   26.9651  C.3 1 <0>  0.2800
   7   C7       16.7283    2.0138   26.8111  C.3 1 <0>  0.2800
   8   C8       17.0827    2.4888   29.0800  C.3 1 <0>  0.5801
   9   C9       17.9106    1.3823   26.0876  C.3 1 <0>  0.2800
  10   N1       19.1338    1.8202   32.1337  N.2 1 <0> -0.6611
  11   N2       18.0620    1.9506   29.9783 N.am 1 <0> -0.4690
  12   N3       20.9035    0.3564   32.4986 N.pl3 1 <0> -0.8501
  13   O1       18.7676   -2.3524   26.1510  O.3 1 <0> -1.0332
  14   O2       20.3972   -0.3812   26.2318  O.3 1 <0> -1.0332
  15   O3       17.4063    3.2470   31.7711  O.2 1 <0> -0.5698
  16   O4       18.9314   -0.7527   24.1606  O.2 1 <0> -1.0332
  17   O5       16.6866    1.4742   28.1463  O.3 1 <0> -0.5601
  18   O6       15.5742    4.1177   27.0755  O.3 1 <0> -0.6802
  19   O7       17.9091   -0.0135   26.3390  O.3 1 <0> -0.5513
  20   P1       19.0969   -0.9440   25.6653  P.3 1 <0>  1.3711
  21   H1       20.5514   -0.3346   29.9123    H 1 <0>  0.1500
  22   H2       18.8047    0.6872   28.4715    H 1 <0>  0.1500
  23   H3       18.6950    3.6777   28.1526    H 1 <0>  0.0000
  24   H4       17.3265    4.6126   28.7574    H 1 <0>  0.0000
  25   H5       17.4035    3.9855   26.1504    H 1 <0>  0.0000
  26   H6       15.8099    1.7415   26.3025    H 1 <0>  0.0000
  27   H7       16.2087    2.7779   29.6896    H 1 <0>  0.0000
  28   H8       18.8490    1.8078   26.4511    H 1 <0>  0.0000
  29   H9       17.8303    1.5497   25.0110    H 1 <0>  0.0000
  30  H10       21.5030   -0.3360   32.1191    H 1 <0>  0.3999
  31  H11       20.9527    0.6777   33.4352    H 1 <0>  0.3999
  32  H12       15.1681    4.1657   26.2069    H 1 <0>  0.3999
@<TRIPOS>BOND
    1     1     2  1
    2     1     3  1
    3     2    11  1
    4     3    10  1
    5     3    12  1
    6     4    10  1
    7     4    11  1
    8     4    15  1
    9     5     6  1
   10     5     8  1
   11     6     7  1
   12     6    18  1
   13     7     9  1
   14     7    17  1
   15     8    11  1
   16     8    17  1
   17     9    19  1
   18    13    20  1
   19    14    20  1
   20    16    20  1
   21    19    20  1
   22     1    21  1
   23     2    22  1
   24     5    23  1
   25     5    24  1
   26     6    25  1
   27     7    26  1
   28     8    27  1
   29     9    28  1
   30     9    29  1
   31    12    30  1
   32    12    31  1
   33    18    32  1

@<TRIPOS>MOLECULE
MOL
   32   33    0    0    0
SMALL
USER_CHARGES


@<TRIPOS>ATOM
   1   C1       19.9077    0.4978   30.2698  C.2 1 <0> -0.1356
   2   C2       18.9581    1.0340   29.5059  C.2 1 <0> -0.0410
   3   C3       19.9904    0.9967   31.6673  C.2 1 <0>  0.4856
   4   C4       18.1926    2.4571   31.3072  C.2 1 <0>  0.8408
   5   C5       17.6027    3.6935   28.2454  C.3 1 <0>  0.0000
   6   C6       16.8535    3.5252   26.9437  C.3 1 <0>  0.2800
   7   C7       16.7283    2.0138   26.8111  C.3 1 <0>  0.2800
   8   C8       17.0950    2.5225   29.0708  C.3 1 <0>  0.5801
   9   C9       17.9106    1.3823   26.0876  C.3 1 <0>  0.2800
  10   N1       19.1735    1.9123   32.1182  N.2 1 <0> -0.6611
  11   N2       18.0852    2.0046   29.9690 N.am 1 <0> -0.4690
  12   N3       20.9579    0.4682   32.4899 N.pl3 1 <0> -0.8501
  13   O1       18.7676   -2.3524   26.1510  O.3 1 <0> -1.0332
  14   O2       20.3972   -0.3812   26.2318  O.3 1 <0> -1.0332
  15   O3       17.4316    3.3198   31.7489  O.2 1 <0> -0.5698
  16   O4       18.9314   -0.7527   24.1606  O.2 1 <0> -1.0332
  17   O5       16.7007    1.4921   28.1537  O.3 1 <0> -0.5601
  18   O6       15.5586    4.1115   27.0554  O.3 1 <0> -0.6802
  19   O7       17.9091   -0.0135   26.3390  O.3 1 <0> -0.5513
  20   P1       19.0969   -0.9440   25.6653  P.3 1 <0>  1.3711
  21   H1       20.5930   -0.2607   29.9158    H 1 <0>  0.1500
  22   H2       18.8275    0.7270   28.4741    H 1 <0>  0.1500
  23   H3       18.6907    3.7119   28.1156    H 1 <0>  0.0000
  24   H4       17.3188    4.6436   28.7177    H 1 <0>  0.0000
  25   H5       17.3822    3.9819   26.1189    H 1 <0>  0.0000
  26   H6       15.8086    1.7271   26.3129    H 1 <0>  0.0000
  27   H7       16.2230    2.8126   29.6827    H 1 <0>  0.0000
  28   H8       18.8490    1.8078   26.4511    H 1 <0>  0.0000
  29   H9       17.8303    1.5497   25.0110    H 1 <0>  0.0000
  30  H10       21.5604   -0.2243   32.1154    H 1 <0>  0.3999
  31  H11       21.0111    0.8027   33.4216    H 1 <0>  0.3999
  32  H12       15.1460    4.1443   26.1892    H 1 <0>  0.3999
@<TRIPOS>BOND
    1     1     2  1
    2     1     3  1
    3     2    11  1
    4     3    10  1
    5     3    12  1
    6     4    10  1
    7     4    11  1
    8     4    15  1
    9     5     6  1
   10     5     8  1
   11     6     7  1
   12     6    18  1
   13     7     9  1
   14     7    17  1
   15     8    11  1
   16     8    17  1
   17     9    19  1
   18    13    20  1
   19    14    20  1
   20    16    20  1
   21    19    20  1
   22     1    21  1
   23     2    22  1
   24     5    23  1
   25     5    24  1
   26     6    25  1
   27     7    26  1
   28     8    27  1
   29     9    28  1
   30     9    29  1
   31    12    30  1
   32    12    31  1
   33    18    32  1

@<TRIPOS>MOLECULE
MOL
   32   33    0    0    0
SMALL
USER_CHARGES


@<TRIPOS>ATOM
   1   C1       19.9450    0.5712   30.2667  C.2 1 <0> -0.1356
   2   C2       18.9855    1.0891   29.5025  C.2 1 <0> -0.0410
   3   C3       20.0335    1.0897   31.6567  C.2 1 <0>  0.4856
   4   C4       18.2211    2.5301   31.2900  C.2 1 <0>  0.8408
   5   C5       17.5990    3.7200   28.2161  C.3 1 <0>  0.0000
   6   C6       16.8419    3.5278   26.9224  C.3 1 <0>  0.2800
   7   C7       16.7283    2.0138   26.8111  C.3 1 <0>  0.2800
   8   C8       17.1070    2.5561   29.0609  C.3 1 <0>  0.5801
   9   C9       17.9106    1.3823   26.0876  C.3 1 <0>  0.2800
  10   N1       19.2123    2.0045   32.1011  N.2 1 <0> -0.6611
  11   N2       18.1078    2.0587   29.9589 N.am 1 <0> -0.4690
  12   N3       21.0113    0.5804   32.4793 N.pl3 1 <0> -0.8501
  13   O1       18.7676   -2.3524   26.1510  O.3 1 <0> -1.0332
  14   O2       20.3972   -0.3812   26.2318  O.3 1 <0> -1.0332
  15   O3       17.4561    3.3925   31.7255  O.2 1 <0> -0.5698
  16   O4       18.9314   -0.7527   24.1606  O.2 1 <0> -1.0332
  17   O5       16.7147    1.5101   28.1608  O.3 1 <0> -0.5601
  18   O6       15.5429    4.1049   27.0356  O.3 1 <0> -0.6802
  19   O7       17.9091   -0.0135   26.3390  O.3 1 <0> -0.5513
  20   P1       19.0969   -0.9440   25.6653  P.3 1 <0>  1.3711
  21   H1       20.6340   -0.1864   29.9180    H 1 <0>  0.1500
  22   H2       18.8501    0.7671   28.4760    H 1 <0>  0.1500
  23   H3       18.6857    3.7455   28.0782    H 1 <0>  0.0000
  24   H4       17.3105    4.6741   28.6776    H 1 <0>  0.0000
  25   H5       17.3608    3.9776   26.0876    H 1 <0>  0.0000
  26   H6       15.8074    1.7128   26.3236    H 1 <0>  0.0000
  27   H7       16.2370    2.8474   29.6753    H 1 <0>  0.0000
  28   H8       18.8490    1.8078   26.4511    H 1 <0>  0.0000
  29   H9       17.8303    1.5497   25.0110    H 1 <0>  0.0000
  30  H10       21.6169   -0.1122   32.1098    H 1 <0>  0.3999
  31  H11       21.0684    0.9279   33.4060    H 1 <0>  0.3999
  32  H12       15.1238    4.1226   26.1721    H 1 <0>  0.3999
@<TRIPOS>BOND
    1     1     2  1
    2     1     3  1
    3     2    11  1
    4     3    10  1
    5     3    12  1
    6     4    10  1
    7     4    11  1
    8     4    15  1
    9     5     6  1
   10     5     8  1
   11     6     7  1
   12     6    18  1
   13     7     9  1
   14     7    17  1
   15     8    11  1
   16     8    17  1
   17     9    19  1
   18    13    20  1
   19    14    20  1
   20    16    20  1
   21    19    20  1
   22     1    21  1
   23     2    22  1
   24     5    23  1
   25     5    24  1
   26     6    25  1
   27     7    26  1
   28     8    27  1
   29     9    28  1
   30     9    29  1
   31    12    30  1
   32    12    31  1
   33    18    32  1

@<TRIPOS>MOLECULE
MOL
   32   33    0    0    0
SMALL
USER_CHARGES


@<TRIPOS>ATOM
   1   C1       19.9816    0.6448   30.2624  C.2 1 <0> -0.1356
   2   C2       19.0124    1.1444   29.4983  C.2 1 <0> -0.0410
   3   C3       20.0758    1.1828   31.6446  C.2 1 <0>  0.4856
   4   C4       18.2489    2.6032   31.2716  C.2 1 <0>  0.8408
   5   C5       17.5948    3.7460   28.1866  C.3 1 <0>  0.0000
   6   C6       16.8301    3.5301   26.9011  C.3 1 <0>  0.2800
   7   C7       16.7283    2.0138   26.8111  C.3 1 <0>  0.2800
   8   C8       17.1186    2.5897   29.0506  C.3 1 <0>  0.5801
   9   C9       17.9106    1.3823   26.0876  C.3 1 <0>  0.2800
  10   N1       19.2502    2.0968   32.0825  N.2 1 <0> -0.6611
  11   N2       18.1300    2.1128   29.9479 N.am 1 <0> -0.4690
  12   N3       21.0637    0.6928   32.4668 N.pl3 1 <0> -0.8501
  13   O1       18.7676   -2.3524   26.1510  O.3 1 <0> -1.0332
  14   O2       20.3972   -0.3812   26.2318  O.3 1 <0> -1.0332
  15   O3       17.4799    3.4650   31.7010  O.2 1 <0> -0.5698
  16   O4       18.9314   -0.7527   24.1606  O.2 1 <0> -1.0332
  17   O5       16.7286    1.5284   28.1676  O.3 1 <0> -0.5601
  18   O6       15.5272    4.0979   27.0159  O.3 1 <0> -0.6802
  19   O7       17.9091   -0.0135   26.3390  O.3 1 <0> -0.5513
  20   P1       19.0969   -0.9440   25.6653  P.3 1 <0>  1.3711
  21   H1       20.6745   -0.1117   29.9189    H 1 <0>  0.1500
  22   H2       18.8723    0.8073   28.4772    H 1 <0>  0.1500
  23   H3       18.6803    3.7787   28.0404    H 1 <0>  0.0000
  24   H4       17.3017    4.7039   28.6372    H 1 <0>  0.0000
  25   H5       17.3392    3.9727   26.0565    H 1 <0>  0.0000
  26   H6       15.8065    1.6986   26.3344    H 1 <0>  0.0000
  27   H7       16.2506    2.8821   29.6673    H 1 <0>  0.0000
  28   H8       18.8490    1.8078   26.4511    H 1 <0>  0.0000
  29   H9       17.8303    1.5497   25.0110    H 1 <0>  0.0000
  30  H10       21.6723    0.0003   32.1022    H 1 <0>  0.3999
  31  H11       21.1246    1.0533   33.3883    H 1 <0>  0.3999
  32  H12       15.1017    4.1004   26.1553    H 1 <0>  0.3999
@<TRIPOS>BOND
    1     1     2  1
    2     1     3  1
    3     2    11  1
    4     3    10  1
    5     3    12  1
    6     4    10  1
    7     4    11  1
    8     4    15  1
    9     5     6  1
   10     5     8  1
   11     6     7  1
   12     6    18  1
   13     7     9  1
   14     7    17  1
   15     8    11  1
   16     8    17  1
   17     9    19  1
   18    13    20  1
   19    14    20  1
   20    16    20  1
   21    19    20  1
   22     1    21  1
   23     2    22  1
   24     5    23  1
   25     5    24  1
   26     6    25  1
   27     7    26  1
   28     8    27  1
   29     9    28  1
   30     9    29  1
   31    12    30  1
   32    12    31  1
   33    18    32  1

@<TRIPOS>MOLECULE
MOL
   32   33    0    0    0
SMALL
USER_CHARGES


@<TRIPOS>ATOM
   1   C1       20.0176    0.7186   30.2567  C.2 1 <0> -0.1356
   2   C2       19.0388    1.1998   29.4930  C.2 1 <0> -0.0410
   3   C3       20.1173    1.2761   31.6308  C.2 1 <0>  0.4856
   4   C4       18.2759    2.6762   31.2520  C.2 1 <0>  0.8408
   5   C5       17.5901    3.7716   28.1567  C.3 1 <0>  0.0000
   6   C6       16.8181    3.5320   26.8798  C.3 1 <0>  0.2800
   7   C7       16.7283    2.0138   26.8111  C.3 1 <0>  0.2800
   8   C8       17.1299    2.6233   29.0397  C.3 1 <0>  0.5801
   9   C9       17.9106    1.3823   26.0876  C.3 1 <0>  0.2800
  10   N1       19.2872    2.1891   32.0623  N.2 1 <0> -0.6611
  11   N2       18.1516    2.1669   29.9359 N.am 1 <0> -0.4690
  12   N3       21.1151    0.8055   32.4524 N.pl3 1 <0> -0.8501
  13   O1       18.7676   -2.3524   26.1510  O.3 1 <0> -1.0332
  14   O2       20.3972   -0.3812   26.2318  O.3 1 <0> -1.0332
  15   O3       17.5028    3.5374   31.6753  O.2 1 <0> -0.5698
  16   O4       18.9314   -0.7527   24.1606  O.2 1 <0> -1.0332
  17   O5       16.7423    1.5469   28.1740  O.3 1 <0> -0.5601
  18   O6       15.5113    4.0906   26.9965  O.3 1 <0> -0.6802
  19   O7       17.9091   -0.0135   26.3390  O.3 1 <0> -0.5513
  20   P1       19.0969   -0.9440   25.6653  P.3 1 <0>  1.3711
  21   H1       20.7143   -0.0368   29.9185    H 1 <0>  0.1500
  22   H2       18.8942    0.8478   28.4776    H 1 <0>  0.1500
  23   H3       18.6743    3.8112   28.0022    H 1 <0>  0.0000
  24   H4       17.2923    4.7330   28.5964    H 1 <0>  0.0000
  25   H5       17.3174    3.9673   26.0257    H 1 <0>  0.0000
  26   H6       15.8057    1.6846   26.3454    H 1 <0>  0.0000
  27   H7       16.2639    2.9168   29.6587    H 1 <0>  0.0000
  28   H8       18.8490    1.8078   26.4511    H 1 <0>  0.0000
  29   H9       17.8303    1.5497   25.0110    H 1 <0>  0.0000
  30  H10       21.7268    0.1131   32.0928    H 1 <0>  0.3999
  31  H11       21.1795    1.1789   33.3684    H 1 <0>  0.3999
  32  H12       15.0797    4.0778   26.1391    H 1 <0>  0.3999
@<TRIPOS>BOND
    1     1     2  1
    2     1     3  1
    3     2    11  1
    4     3    10  1
    5     3    12  1
    6     4    10  1
    7     4    11  1
    8     4    15  1
    9     5     6  1
   10     5     8  1
   11     6     7  1
   12     6    18  1
   13     7     9  1
   14     7    17  1
   15     8    11  1
   16     8    17  1
   17     9    19  1
   18    13    20  1
   19    14    20  1
   20    16    20  1
   21    19    20  1
   22     1    21  1
   23     2    22  1
   24     5    23  1
   25     5    24  1
   26     6    25  1
   27     7    26  1
   28     8    27  1
   29     9    28  1
   30     9    29  1
   31    12    30  1
   32    12    31  1
   33    18    32  1

@<TRIPOS>MOLECULE
MOL
   32   33    0    0    0
SMALL
USER_CHARGES


@<TRIPOS>ATOM
   1   C1       20.0530    0.7927   30.2499  C.2 1 <0> -0.1356
   2   C2       19.0647    1.2553   29.4869  C.2 1 <0> -0.0410
   3   C3       20.1578    1.3696   31.6155  C.2 1 <0>  0.4856
   4   C4       18.3022    2.7492   31.2312  C.2 1 <0>  0.8408
   5   C5       17.5851    3.7968   28.1265  C.3 1 <0>  0.0000
   6   C6       16.8059    3.5334   26.8586  C.3 1 <0>  0.2800
   7   C7       16.7283    2.0138   26.8111  C.3 1 <0>  0.2800
   8   C8       17.1407    2.6568   29.0283  C.3 1 <0>  0.5801
   9   C9       17.9106    1.3823   26.0876  C.3 1 <0>  0.2800
  10   N1       19.3232    2.2815   32.0407  N.2 1 <0> -0.6611
  11   N2       18.1727    2.2210   29.9231 N.am 1 <0> -0.4690
  12   N3       21.1654    0.9184   32.4360 N.pl3 1 <0> -0.8501
  13   O1       18.7676   -2.3524   26.1510  O.3 1 <0> -1.0332
  14   O2       20.3972   -0.3812   26.2318  O.3 1 <0> -1.0332
  15   O3       17.5250    3.6096   31.6485  O.2 1 <0> -0.5698
  16   O4       18.9314   -0.7527   24.1606  O.2 1 <0> -1.0332
  17   O5       16.7560    1.5656   28.1800  O.3 1 <0> -0.5601
  18   O6       15.4954    4.0828   26.9773  O.3 1 <0> -0.6802
  19   O7       17.9091   -0.0135   26.3390  O.3 1 <0> -0.5513
  20   P1       19.0969   -0.9440   25.6653  P.3 1 <0>  1.3711
  21   H1       20.7534    0.0385   29.9168    H 1 <0>  0.1500
  22   H2       18.9157    0.8884   28.4774    H 1 <0>  0.1500
  23   H3       18.6677    3.8432   27.9635    H 1 <0>  0.0000
  24   H4       17.2824    4.7616   28.5554    H 1 <0>  0.0000
  25   H5       17.2954    3.9612   25.9950    H 1 <0>  0.0000
  26   H6       15.8052    1.6707   26.3567    H 1 <0>  0.0000
  27   H7       16.2769    2.9515   29.6495    H 1 <0>  0.0000
  28   H8       18.8490    1.8078   26.4511    H 1 <0>  0.0000
  29   H9       17.8303    1.5497   25.0110    H 1 <0>  0.0000
  30  H10       21.7803    0.2263   32.0814    H 1 <0>  0.3999
  31  H11       21.2333    1.3048   33.3465    H 1 <0>  0.3999
  32  H12       15.0578    4.0549   26.1233    H 1 <0>  0.3999
@<TRIPOS>BOND
    1     1     2  1
    2     1     3  1
    3     2    11  1
    4     3    10  1
    5     3    12  1
    6     4    10  1
    7     4    11  1
    8     4    15  1
    9     5     6  1
   10     5     8  1
   11     6     7  1
   12     6    18  1
   13     7     9  1
   14     7    17  1
   15     8    11  1
   16     8    17  1
   17     9    19  1
   18    13    20  1
   19    14    20  1
   20    16    20  1
   21    19    20  1
   22     1    21  1
   23     2    22  1
   24     5    23  1
   25     5    24  1
   26     6    25  1
   27     7    26  1
   28     8    27  1
   29     9    28  1
   30     9    29  1
   31    12    30  1
   32    12    31  1
   33    18    32  1

@<TRIPOS>MOLECULE
MOL
   32   33    0    0    0
SMALL
USER_CHARGES


@<TRIPOS>ATOM
   1   C1       20.0876    0.8669   30.2417  C.2 1 <0> -0.1356
   2   C2       19.0901    1.3110   29.4798  C.2 1 <0> -0.0410
   3   C3       20.1975    1.4632   31.5986  C.2 1 <0>  0.4856
   4   C4       18.3277    2.8221   31.2093  C.2 1 <0>  0.8408
   5   C5       17.5796    3.8214   28.0960  C.3 1 <0>  0.0000
   6   C6       16.7935    3.5345   26.8375  C.3 1 <0>  0.2800
   7   C7       16.7283    2.0138   26.8111  C.3 1 <0>  0.2800
   8   C8       17.1513    2.6902   29.0163  C.3 1 <0>  0.5801
   9   C9       17.9106    1.3823   26.0876  C.3 1 <0>  0.2800
  10   N1       19.3584    2.3739   32.0175  N.2 1 <0> -0.6611
  11   N2       18.1932    2.2752   29.9094 N.am 1 <0> -0.4690
  12   N3       21.2146    1.0314   32.4178 N.pl3 1 <0> -0.8501
  13   O1       18.7676   -2.3524   26.1510  O.3 1 <0> -1.0332
  14   O2       20.3972   -0.3812   26.2318  O.3 1 <0> -1.0332
  15   O3       17.5464    3.6817   31.6206  O.2 1 <0> -0.5698
  16   O4       18.9314   -0.7527   24.1606  O.2 1 <0> -1.0332
  17   O5       16.7696    1.5844   28.1857  O.3 1 <0> -0.5601
  18   O6       15.4794    4.0746   26.9583  O.3 1 <0> -0.6802
  19   O7       17.9091   -0.0135   26.3390  O.3 1 <0> -0.5513
  20   P1       19.0969   -0.9440   25.6653  P.3 1 <0>  1.3711
  21   H1       20.7920    0.1141   29.9138    H 1 <0>  0.1500
  22   H2       18.9369    0.9292   28.4765    H 1 <0>  0.1500
  23   H3       18.6606    3.8746   27.9245    H 1 <0>  0.0000
  24   H4       17.2720    4.7895   28.5140    H 1 <0>  0.0000
  25   H5       17.2733    3.9546   25.9647    H 1 <0>  0.0000
  26   H6       15.8049    1.6570   26.3681    H 1 <0>  0.0000
  27   H7       16.2894    2.9862   29.6398    H 1 <0>  0.0000
  28   H8       18.8490    1.8078   26.4511    H 1 <0>  0.0000
  29   H9       17.8303    1.5497   25.0110    H 1 <0>  0.0000
  30  H10       21.8327    0.3397   32.0681    H 1 <0>  0.3999
  31  H11       21.2859    1.4307   33.3224    H 1 <0>  0.3999
  32  H12       15.0359    4.0315   26.1079    H 1 <0>  0.3999
@<TRIPOS>BOND
    1     1     2  1
    2     1     3  1
    3     2    11  1
    4     3    10  1
    5     3    12  1
    6     4    10  1
    7     4    11  1
    8     4    15  1
    9     5     6  1
   10     5     8  1
   11     6     7  1
   12     6    18  1
   13     7     9  1
   14     7    17  1
   15     8    11  1
   16     8    17  1
   17     9    19  1
   18    13    20  1
   19    14    20  1
   20    16    20  1
   21    19    20  1
   22     1    21  1
   23     2    22  1
   24     5    23  1
   25     5    24  1
   26     6    25  1
   27     7    26  1
   28     8    27  1
   29     9    28  1
   30     9    29  1
   31    12    30  1
   32    12    31  1
   33    18    32  1

@<TRIPOS>MOLECULE
MOL
   32   33    0    0    0
SMALL
USER_CHARGES


@<TRIPOS>ATOM
   1   C1       20.1216    0.9413   30.2323  C.2 1 <0> -0.1356
   2   C2       19.1150    1.3668   29.4717  C.2 1 <0> -0.0410
   3   C3       20.2362    1.5568   31.5802  C.2 1 <0>  0.4856
   4   C4       18.3524    2.8948   31.1862  C.2 1 <0>  0.8408
   5   C5       17.5737    3.8457   28.0652  C.3 1 <0>  0.0000
   6   C6       16.7810    3.5352   26.8165  C.3 1 <0>  0.2800
   7   C7       16.7283    2.0138   26.8111  C.3 1 <0>  0.2800
   8   C8       17.1614    2.7235   29.0038  C.3 1 <0>  0.5801
   9   C9       17.9106    1.3823   26.0876  C.3 1 <0>  0.2800
  10   N1       19.3926    2.4662   31.9929  N.2 1 <0> -0.6611
  11   N2       18.2132    2.3293   29.8948 N.am 1 <0> -0.4690
  12   N3       21.2628    1.1447   32.3977 N.pl3 1 <0> -0.8501
  13   O1       18.7676   -2.3524   26.1510  O.3 1 <0> -1.0332
  14   O2       20.3972   -0.3812   26.2318  O.3 1 <0> -1.0332
  15   O3       17.5669    3.7535   31.5915  O.2 1 <0> -0.5698
  16   O4       18.9314   -0.7527   24.1606  O.2 1 <0> -1.0332
  17   O5       16.7830    1.6035   28.1911  O.3 1 <0> -0.5601
  18   O6       15.4634    4.0661   26.9395  O.3 1 <0> -0.6802
  19   O7       17.9091   -0.0135   26.3390  O.3 1 <0> -0.5513
  20   P1       19.0969   -0.9440   25.6653  P.3 1 <0>  1.3711
  21   H1       20.8298    0.1900   29.9095    H 1 <0>  0.1500
  22   H2       18.9578    0.9701   28.4748    H 1 <0>  0.1500
  23   H3       18.6530    3.9054   27.8852    H 1 <0>  0.0000
  24   H4       17.2611    4.8167   28.4723    H 1 <0>  0.0000
  25   H5       17.2510    3.9473   25.9346    H 1 <0>  0.0000
  26   H6       15.8047    1.6434   26.3797    H 1 <0>  0.0000
  27   H7       16.3017    3.0209   29.6295    H 1 <0>  0.0000
  28   H8       18.8490    1.8078   26.4511    H 1 <0>  0.0000
  29   H9       17.8303    1.5497   25.0110    H 1 <0>  0.0000
  30  H10       21.8841    0.4533   32.0529    H 1 <0>  0.3999
  31  H11       21.3372    1.5567   33.2963    H 1 <0>  0.3999
  32  H12       15.0142    4.0078   26.0931    H 1 <0>  0.3999
@<TRIPOS>BOND
    1     1     2  1
    2     1     3  1
    3     2    11  1
    4     3    10  1
    5     3    12  1
    6     4    10  1
    7     4    11  1
    8     4    15  1
    9     5     6  1
   10     5     8  1
   11     6     7  1
   12     6    18  1
   13     7     9  1
   14     7    17  1
   15     8    11  1
   16     8    17  1
   17     9    19  1
   18    13    20  1
   19    14    20  1
   20    16    20  1
   21    19    20  1
   22     1    21  1
   23     2    22  1
   24     5    23  1
   25     5    24  1
   26     6    25  1
   27     7    26  1
   28     8    27  1
   29     9    28  1
   30     9    29  1
   31    12    30  1
   32    12    31  1
   33    18    32  1

@<TRIPOS>MOLECULE
MOL
   32   33    0    0    0
SMALL
USER_CHARGES


@<TRIPOS>ATOM
   1   C1       20.1549    1.0159   30.2217  C.2 1 <0> -0.1356
   2   C2       19.1393    1.4227   29.4628  C.2 1 <0> -0.0410
   3   C3       20.2741    1.6505   31.5602  C.2 1 <0>  0.4856
   4   C4       18.3764    2.9675   31.1619  C.2 1 <0>  0.8408
   5   C5       17.5674    3.8694   28.0341  C.3 1 <0>  0.0000
   6   C6       16.7684    3.5356   26.7955  C.3 1 <0>  0.2800
   7   C7       16.7283    2.0138   26.8111  C.3 1 <0>  0.2800
   8   C8       17.1712    2.7568   28.9908  C.3 1 <0>  0.5801
   9   C9       17.9106    1.3823   26.0876  C.3 1 <0>  0.2800
  10   N1       19.4259    2.5584   31.9667  N.2 1 <0> -0.6611
  11   N2       18.2326    2.3833   29.8794 N.am 1 <0> -0.4690
  12   N3       21.3099    1.2580   32.3758 N.pl3 1 <0> -0.8501
  13   O1       18.7676   -2.3524   26.1510  O.3 1 <0> -1.0332
  14   O2       20.3972   -0.3812   26.2318  O.3 1 <0> -1.0332
  15   O3       17.5867    3.8251   31.5613  O.2 1 <0> -0.5698
  16   O4       18.9314   -0.7527   24.1606  O.2 1 <0> -1.0332
  17   O5       16.7964    1.6227   28.1960  O.3 1 <0> -0.5601
  18   O6       15.4473    4.0571   26.9210  O.3 1 <0> -0.6802
  19   O7       17.9091   -0.0135   26.3390  O.3 1 <0> -0.5513
  20   P1       19.0969   -0.9440   25.6653  P.3 1 <0>  1.3711
  21   H1       20.8670    0.2661   29.9039    H 1 <0>  0.1500
  22   H2       18.9783    1.0112   28.4725    H 1 <0>  0.1500
  23   H3       18.6448    3.9356   27.8454    H 1 <0>  0.0000
  24   H4       17.2496    4.8433   28.4303    H 1 <0>  0.0000
  25   H5       17.2286    3.9395   25.9047    H 1 <0>  0.0000
  26   H6       15.8048    1.6300   26.3915    H 1 <0>  0.0000
  27   H7       16.3135    3.0555   29.6187    H 1 <0>  0.0000
  28   H8       18.8490    1.8078   26.4511    H 1 <0>  0.0000
  29   H9       17.8303    1.5497   25.0110    H 1 <0>  0.0000
  30  H10       21.9345    0.5672   32.0358    H 1 <0>  0.3999
  31  H11       21.3873    1.6828   33.2681    H 1 <0>  0.3999
  32  H12       14.9925    3.9836   26.0787    H 1 <0>  0.3999
@<TRIPOS>BOND
    1     1     2  1
    2     1     3  1
    3     2    11  1
    4     3    10  1
    5     3    12  1
    6     4    10  1
    7     4    11  1
    8     4    15  1
    9     5     6  1
   10     5     8  1
   11     6     7  1
   12     6    18  1
   13     7     9  1
   14     7    17  1
   15     8    11  1
   16     8    17  1
   17     9    19  1
   18    13    20  1
   19    14    20  1
   20    16    20  1
   21    19    20  1
   22     1    21  1
   23     2    22  1
   24     5    23  1
   25     5    24  1
   26     6    25  1
   27     7    26  1
   28     8    27  1
   29     9    28  1
   30     9    29  1
   31    12    30  1
   32    12    31  1
   33    18    32  1

@<TRIPOS>MOLECULE
MOL
   32   33    0    0    0
SMALL
USER_CHARGES


@<TRIPOS>ATOM
   1   C1       20.1875    1.0905   30.2098  C.2 1 <0> -0.1356
   2   C2       19.1632    1.4786   29.4529  C.2 1 <0> -0.0410
   3   C3       20.3110    1.7443   31.5387  C.2 1 <0>  0.4856
   4   C4       18.3996    3.0400   31.1365  C.2 1 <0>  0.8408
   5   C5       17.5606    3.8927   28.0027  C.3 1 <0>  0.0000
   6   C6       16.7556    3.5355   26.7747  C.3 1 <0>  0.2800
   7   C7       16.7283    2.0138   26.8111  C.3 1 <0>  0.2800
   8   C8       17.1807    2.7899   28.9773  C.3 1 <0>  0.5801
   9   C9       17.9106    1.3823   26.0876  C.3 1 <0>  0.2800
  10   N1       19.4582    2.6506   31.9391  N.2 1 <0> -0.6611
  11   N2       18.2514    2.4373   29.8631 N.am 1 <0> -0.4690
  12   N3       21.3559    1.3714   32.3519 N.pl3 1 <0> -0.8501
  13   O1       18.7676   -2.3524   26.1510  O.3 1 <0> -1.0332
  14   O2       20.3972   -0.3812   26.2318  O.3 1 <0> -1.0332
  15   O3       17.6057    3.8964   31.5300  O.2 1 <0> -0.5698
  16   O4       18.9314   -0.7527   24.1606  O.2 1 <0> -1.0332
  17   O5       16.8096    1.6421   28.2007  O.3 1 <0> -0.5601
  18   O6       15.4311    4.0478   26.9027  O.3 1 <0> -0.6802
  19   O7       17.9091   -0.0135   26.3390  O.3 1 <0> -0.5513
  20   P1       19.0969   -0.9440   25.6653  P.3 1 <0>  1.3711
  21   H1       20.9036    0.3424   29.8969    H 1 <0>  0.1500
  22   H2       18.9985    1.0524   28.4694    H 1 <0>  0.1500
  23   H3       18.6361    3.9652   27.8054    H 1 <0>  0.0000
  24   H4       17.2376    4.8692   28.3881    H 1 <0>  0.0000
  25   H5       17.2060    3.9311   25.8752    H 1 <0>  0.0000
  26   H6       15.8050    1.6167   26.4035    H 1 <0>  0.0000
  27   H7       16.3250    3.0901   29.6073    H 1 <0>  0.0000
  28   H8       18.8490    1.8078   26.4511    H 1 <0>  0.0000
  29   H9       17.8303    1.5497   25.0110    H 1 <0>  0.0000
  30  H10       21.9837    0.6812   32.0167    H 1 <0>  0.3999
  31  H11       21.4361    1.8089   33.2379    H 1 <0>  0.3999
  32  H12       14.9709    3.9591   26.0648    H 1 <0>  0.3999
@<TRIPOS>BOND
    1     1     2  1
    2     1     3  1
    3     2    11  1
    4     3    10  1
    5     3    12  1
    6     4    10  1
    7     4    11  1
    8     4    15  1
    9     5     6  1
   10     5     8  1
   11     6     7  1
   12     6    18  1
   13     7     9  1
   14     7    17  1
   15     8    11  1
   16     8    17  1
   17     9    19  1
   18    13    20  1
   19    14    20  1
   20    16    20  1
   21    19    20  1
   22     1    21  1
   23     2    22  1
   24     5    23  1
   25     5    24  1
   26     6    25  1
   27     7    26  1
   28     8    27  1
   29     9    28  1
   30     9    29  1
   31    12    30  1
   32    12    31  1
   33    18    32  1

@<TRIPOS>MOLECULE
MOL
   32   33    0    0    0
SMALL
USER_CHARGES


@<TRIPOS>ATOM
   1   C1       20.2194    1.1653   30.1966  C.2 1 <0> -0.1356
   2   C2       19.1864    1.5346   29.4420  C.2 1 <0> -0.0410
   3   C3       20.3469    1.8380   31.5157  C.2 1 <0>  0.4856
   4   C4       18.4220    3.1124   31.1099  C.2 1 <0>  0.8408
   5   C5       17.5535    3.9155   27.9711  C.3 1 <0>  0.0000
   6   C6       16.7426    3.5350   26.7539  C.3 1 <0>  0.2800
   7   C7       16.7283    2.0138   26.8111  C.3 1 <0>  0.2800
   8   C8       17.1897    2.8230   28.9632  C.3 1 <0>  0.5801
   9   C9       17.9106    1.3823   26.0876  C.3 1 <0>  0.2800
  10   N1       19.4895    2.7426   31.9100  N.2 1 <0> -0.6611
  11   N2       18.2697    2.4913   29.8459 N.am 1 <0> -0.4690
  12   N3       21.4007    1.4848   32.3262 N.pl3 1 <0> -0.8501
  13   O1       18.7676   -2.3524   26.1510  O.3 1 <0> -1.0332
  14   O2       20.3972   -0.3812   26.2318  O.3 1 <0> -1.0332
  15   O3       17.6238    3.9675   31.4976  O.2 1 <0> -0.5698
  16   O4       18.9314   -0.7527   24.1606  O.2 1 <0> -1.0332
  17   O5       16.8226    1.6617   28.2049  O.3 1 <0> -0.5601
  18   O6       15.4149    4.0381   26.8847  O.3 1 <0> -0.6802
  19   O7       17.9091   -0.0135   26.3390  O.3 1 <0> -0.5513
  20   P1       19.0969   -0.9440   25.6653  P.3 1 <0>  1.3711
  21   H1       20.9394    0.4189   29.8887    H 1 <0>  0.1500
  22   H2       19.0183    1.0938   28.4657    H 1 <0>  0.1500
  23   H3       18.6268    3.9942   27.7650    H 1 <0>  0.0000
  24   H4       17.2251    4.8945   28.3456    H 1 <0>  0.0000
  25   H5       17.1832    3.9221   25.8459    H 1 <0>  0.0000
  26   H6       15.8054    1.6036   26.4156    H 1 <0>  0.0000
  27   H7       16.3361    3.1246   29.5954    H 1 <0>  0.0000
  28   H8       18.8490    1.8078   26.4511    H 1 <0>  0.0000
  29   H9       17.8303    1.5497   25.0110    H 1 <0>  0.0000
  30  H10       22.0319    0.7954   31.9958    H 1 <0>  0.3999
  31  H11       21.4837    1.9350   33.2055    H 1 <0>  0.3999
  32  H12       14.9494    3.9343   26.0514    H 1 <0>  0.3999
@<TRIPOS>BOND
    1     1     2  1
    2     1     3  1
    3     2    11  1
    4     3    10  1
    5     3    12  1
    6     4    10  1
    7     4    11  1
    8     4    15  1
    9     5     6  1
   10     5     8  1
   11     6     7  1
   12     6    18  1
   13     7     9  1
   14     7    17  1
   15     8    11  1
   16     8    17  1
   17     9    19  1
   18    13    20  1
   19    14    20  1
   20    16    20  1
   21    19    20  1
   22     1    21  1
   23     2    22  1
   24     5    23  1
   25     5    24  1
   26     6    25  1
   27     7    26  1
   28     8    27  1
   29     9    28  1
   30     9    29  1
   31    12    30  1
   32    12    31  1
   33    18    32  1

@<TRIPOS>MOLECULE
MOL
   32   33    0    0    0
SMALL
USER_CHARGES


@<TRIPOS>ATOM
   1   C1       20.2506    1.2401   30.1822  C.2 1 <0> -0.1356
   2   C2       19.2092    1.5906   29.4303  C.2 1 <0> -0.0410
   3   C3       20.3820    1.9317   31.4911  C.2 1 <0>  0.4856
   4   C4       18.4436    3.1846   31.0822  C.2 1 <0>  0.8408
   5   C5       17.5459    3.9378   27.9393  C.3 1 <0>  0.0000
   6   C6       16.7295    3.5342   26.7332  C.3 1 <0>  0.2800
   7   C7       16.7283    2.0138   26.8111  C.3 1 <0>  0.2800
   8   C8       17.1984    2.8559   28.9487  C.3 1 <0>  0.5801
   9   C9       17.9106    1.3823   26.0876  C.3 1 <0>  0.2800
  10   N1       19.5199    2.8345   31.8794  N.2 1 <0> -0.6611
  11   N2       18.2874    2.5451   29.8278 N.am 1 <0> -0.4690
  12   N3       21.4445    1.5983   32.2986 N.pl3 1 <0> -0.8501
  13   O1       18.7676   -2.3524   26.1510  O.3 1 <0> -1.0332
  14   O2       20.3972   -0.3812   26.2318  O.3 1 <0> -1.0332
  15   O3       17.6411    4.0383   31.4641  O.2 1 <0> -0.5698
  16   O4       18.9314   -0.7527   24.1606  O.2 1 <0> -1.0332
  17   O5       16.8356    1.6815   28.2088  O.3 1 <0> -0.5601
  18   O6       15.3986    4.0280   26.8669  O.3 1 <0> -0.6802
  19   O7       17.9091   -0.0135   26.3390  O.3 1 <0> -0.5513
  20   P1       19.0969   -0.9440   25.6653  P.3 1 <0>  1.3711
  21   H1       20.9745    0.4956   29.8792    H 1 <0>  0.1500
  22   H2       19.0377    1.1352   28.4612    H 1 <0>  0.1500
  23   H3       18.6171    4.0225   27.7242    H 1 <0>  0.0000
  24   H4       17.2120    4.9191   28.3028    H 1 <0>  0.0000
  25   H5       17.1604    3.9125   25.8169    H 1 <0>  0.0000
  26   H6       15.8061    1.5907   26.4279    H 1 <0>  0.0000
  27   H7       16.3469    3.1590   29.5829    H 1 <0>  0.0000
  28   H8       18.8490    1.8078   26.4511    H 1 <0>  0.0000
  29   H9       17.8303    1.5497   25.0110    H 1 <0>  0.0000
  30  H10       22.0790    0.9096   31.9730    H 1 <0>  0.3999
  31  H11       21.5300    2.0610   33.1712    H 1 <0>  0.3999
  32  H12       14.9281    3.9091   26.0385    H 1 <0>  0.3999
@<TRIPOS>BOND
    1     1     2  1
    2     1     3  1
    3     2    11  1
    4     3    10  1
    5     3    12  1
    6     4    10  1
    7     4    11  1
    8     4    15  1
    9     5     6  1
   10     5     8  1
   11     6     7  1
   12     6    18  1
   13     7     9  1
   14     7    17  1
   15     8    11  1
   16     8    17  1
   17     9    19  1
   18    13    20  1
   19    14    20  1
   20    16    20  1
   21    19    20  1
   22     1    21  1
   23     2    22  1
   24     5    23  1
   25     5    24  1
   26     6    25  1
   27     7    26  1
   28     8    27  1
   29     9    28  1
   30     9    29  1
   31    12    30  1
   32    12    31  1
   33    18    32  1

@<TRIPOS>MOLECULE
MOL
   32   33    0    0    0
SMALL
USER_CHARGES


@<TRIPOS>ATOM
   1   C1       20.2810    1.3150   30.1666  C.2 1 <0> -0.1356
   2   C2       19.2314    1.6467   29.4176  C.2 1 <0> -0.0410
   3   C3       20.4160    2.0254   31.4651  C.2 1 <0>  0.4856
   4   C4       18.4644    3.2566   31.0534  C.2 1 <0>  0.8408
   5   C5       17.5379    3.9596   27.9072  C.3 1 <0>  0.0000
   6   C6       16.7163    3.5329   26.7127  C.3 1 <0>  0.2800
   7   C7       16.7283    2.0138   26.8111  C.3 1 <0>  0.2800
   8   C8       17.2067    2.8887   28.9336  C.3 1 <0>  0.5801
   9   C9       17.9106    1.3823   26.0876  C.3 1 <0>  0.2800
  10   N1       19.5493    2.9262   31.8473  N.2 1 <0> -0.6611
  11   N2       18.3046    2.5988   29.8089 N.am 1 <0> -0.4690
  12   N3       21.4870    1.7117   32.2692 N.pl3 1 <0> -0.8501
  13   O1       18.7676   -2.3524   26.1510  O.3 1 <0> -1.0332
  14   O2       20.3972   -0.3812   26.2318  O.3 1 <0> -1.0332
  15   O3       17.6576    4.1087   31.4295  O.2 1 <0> -0.5698
  16   O4       18.9314   -0.7527   24.1606  O.2 1 <0> -1.0332
  17   O5       16.8484    1.7014   28.2124  O.3 1 <0> -0.5601
  18   O6       15.3823    4.0176   26.8493  O.3 1 <0> -0.6802
  19   O7       17.9091   -0.0135   26.3390  O.3 1 <0> -0.5513
  20   P1       19.0969   -0.9440   25.6653  P.3 1 <0>  1.3711
  21   H1       21.0090    0.5724   29.8684    H 1 <0>  0.1500
  22   H2       19.0567    1.1768   28.4561    H 1 <0>  0.1500
  23   H3       18.6067    4.0502   27.6832    H 1 <0>  0.0000
  24   H4       17.1985    4.9429   28.2599    H 1 <0>  0.0000
  25   H5       17.1374    3.9023   25.7882    H 1 <0>  0.0000
  26   H6       15.8069    1.5780   26.4404    H 1 <0>  0.0000
  27   H7       16.3573    3.1934   29.5699    H 1 <0>  0.0000
  28   H8       18.8490    1.8078   26.4511    H 1 <0>  0.0000
  29   H9       17.8303    1.5497   25.0110    H 1 <0>  0.0000
  30  H10       22.1249    1.0239   31.9483    H 1 <0>  0.3999
  31  H11       21.5750    2.1869   33.1348    H 1 <0>  0.3999
  32  H12       14.9068    3.8835   26.0261    H 1 <0>  0.3999
@<TRIPOS>BOND
    1     1     2  1
    2     1     3  1
    3     2    11  1
    4     3    10  1
    5     3    12  1
    6     4    10  1
    7     4    11  1
    8     4    15  1
    9     5     6  1
   10     5     8  1
   11     6     7  1
   12     6    18  1
   13     7     9  1
   14     7    17  1
   15     8    11  1
   16     8    17  1
   17     9    19  1
   18    13    20  1
   19    14    20  1
   20    16    20  1
   21    19    20  1
   22     1    21  1
   23     2    22  1
   24     5    23  1
   25     5    24  1
   26     6    25  1
   27     7    26  1
   28     8    27  1
   29     9    28  1
   30     9    29  1
   31    12    30  1
   32    12    31  1
   33    18    32  1

@<TRIPOS>MOLECULE
MOL
   32   33    0    0    0
SMALL
USER_CHARGES


@<TRIPOS>ATOM
   1   C1       20.3107    1.3899   30.1498  C.2 1 <0> -0.1356
   2   C2       19.2530    1.7028   29.4040  C.2 1 <0> -0.0410
   3   C3       20.4491    2.1190   31.4375  C.2 1 <0>  0.4856
   4   C4       18.4844    3.3283   31.0234  C.2 1 <0>  0.8408
   5   C5       17.5295    3.9810   27.8748  C.3 1 <0>  0.0000
   6   C6       16.7029    3.5313   26.6923  C.3 1 <0>  0.2800
   7   C7       16.7283    2.0138   26.8111  C.3 1 <0>  0.2800
   8   C8       17.2146    2.9213   28.9180  C.3 1 <0>  0.5801
   9   C9       17.9106    1.3823   26.0876  C.3 1 <0>  0.2800
  10   N1       19.5777    3.0177   31.8138  N.2 1 <0> -0.6611
  11   N2       18.3211    2.6525   29.7892 N.am 1 <0> -0.4690
  12   N3       21.5285    1.8250   32.2379 N.pl3 1 <0> -0.8501
  13   O1       18.7676   -2.3524   26.1510  O.3 1 <0> -1.0332
  14   O2       20.3972   -0.3812   26.2318  O.3 1 <0> -1.0332
  15   O3       17.6732    4.1788   31.3939  O.2 1 <0> -0.5698
  16   O4       18.9314   -0.7527   24.1606  O.2 1 <0> -1.0332
  17   O5       16.8610    1.7214   28.2156  O.3 1 <0> -0.5601
  18   O6       15.3659    4.0068   26.8321  O.3 1 <0> -0.6802
  19   O7       17.9091   -0.0135   26.3390  O.3 1 <0> -0.5513
  20   P1       19.0969   -0.9440   25.6653  P.3 1 <0>  1.3711
  21   H1       21.0427    0.6494   29.8563    H 1 <0>  0.1500
  22   H2       19.0754    1.2184   28.4502    H 1 <0>  0.1500
  23   H3       18.5959    4.0773   27.6419    H 1 <0>  0.0000
  24   H4       17.1844    4.9661   28.2167    H 1 <0>  0.0000
  25   H5       17.1143    3.8915   25.7598    H 1 <0>  0.0000
  26   H6       15.8079    1.5654   26.4531    H 1 <0>  0.0000
  27   H7       16.3673    3.2276   29.5563    H 1 <0>  0.0000
  28   H8       18.8490    1.8078   26.4511    H 1 <0>  0.0000
  29   H9       17.8303    1.5497   25.0110    H 1 <0>  0.0000
  30  H10       22.1697    1.1383   31.9217    H 1 <0>  0.3999
  31  H11       21.6186    2.3127   33.0964    H 1 <0>  0.3999
  32  H12       14.8857    3.8576   26.0142    H 1 <0>  0.3999
@<TRIPOS>BOND
    1     1     2  1
    2     1     3  1
    3     2    11  1
    4     3    10  1
    5     3    12  1
    6     4    10  1
    7     4    11  1
    8     4    15  1
    9     5     6  1
   10     5     8  1
   11     6     7  1
   12     6    18  1
   13     7     9  1
   14     7    17  1
   15     8    11  1
   16     8    17  1
   17     9    19  1
   18    13    20  1
   19    14    20  1
   20    16    20  1
   21    19    20  1
   22     1    21  1
   23     2    22  1
   24     5    23  1
   25     5    24  1
   26     6    25  1
   27     7    26  1
   28     8    27  1
   29     9    28  1
   30     9    29  1
   31    12    30  1
   32    12    31  1
   33    18    32  1

@<TRIPOS>MOLECULE
MOL
   32   33    0    0    0
SMALL
USER_CHARGES


@<TRIPOS>ATOM
   1   C1       20.3397    1.4649   30.1317  C.2 1 <0> -0.1356
   2   C2       19.2740    1.7588   29.3895  C.2 1 <0> -0.0410
   3   C3       20.4812    2.2124   31.4084  C.2 1 <0>  0.4856
   4   C4       18.5035    3.3998   30.9923  C.2 1 <0>  0.8408
   5   C5       17.5207    4.0018   27.8423  C.3 1 <0>  0.0000
   6   C6       16.6894    3.5293   26.6719  C.3 1 <0>  0.2800
   7   C7       16.7283    2.0138   26.8111  C.3 1 <0>  0.2800
   8   C8       17.2221    2.9538   28.9020  C.3 1 <0>  0.5801
   9   C9       17.9106    1.3823   26.0876  C.3 1 <0>  0.2800
  10   N1       19.6050    3.1090   31.7789  N.2 1 <0> -0.6611
  11   N2       18.3371    2.7059   29.7686 N.am 1 <0> -0.4690
  12   N3       21.5687    1.9383   32.2049 N.pl3 1 <0> -0.8501
  13   O1       18.7676   -2.3524   26.1510  O.3 1 <0> -1.0332
  14   O2       20.3972   -0.3812   26.2318  O.3 1 <0> -1.0332
  15   O3       17.6880    4.2485   31.3572  O.2 1 <0> -0.5698
  16   O4       18.9314   -0.7527   24.1606  O.2 1 <0> -1.0332
  17   O5       16.8735    1.7416   28.2184  O.3 1 <0> -0.5601
  18   O6       15.3495    3.9956   26.8151  O.3 1 <0> -0.6802
  19   O7       17.9091   -0.0135   26.3390  O.3 1 <0> -0.5513
  20   P1       19.0969   -0.9440   25.6653  P.3 1 <0>  1.3711
  21   H1       21.0757    0.7265   29.8429    H 1 <0>  0.1500
  22   H2       19.0936    1.2601   28.4437    H 1 <0>  0.1500
  23   H3       18.5846    4.1037   27.6003    H 1 <0>  0.0000
  24   H4       17.1699    4.9886   28.1733    H 1 <0>  0.0000
  25   H5       17.0910    3.8802   25.7317    H 1 <0>  0.0000
  26   H6       15.8092    1.5530   26.4659    H 1 <0>  0.0000
  27   H7       16.3769    3.2618   29.5422    H 1 <0>  0.0000
  28   H8       18.8490    1.8078   26.4511    H 1 <0>  0.0000
  29   H9       17.8303    1.5497   25.0110    H 1 <0>  0.0000
  30  H10       22.2134    1.2526   31.8933    H 1 <0>  0.3999
  31  H11       21.6610    2.4383   33.0559    H 1 <0>  0.3999
  32  H12       14.8647    3.8314   26.0029    H 1 <0>  0.3999
@<TRIPOS>BOND
    1     1     2  1
    2     1     3  1
    3     2    11  1
    4     3    10  1
    5     3    12  1
    6     4    10  1
    7     4    11  1
    8     4    15  1
    9     5     6  1
   10     5     8  1
   11     6     7  1
   12     6    18  1
   13     7     9  1
   14     7    17  1
   15     8    11  1
   16     8    17  1
   17     9    19  1
   18    13    20  1
   19    14    20  1
   20    16    20  1
   21    19    20  1
   22     1    21  1
   23     2    22  1
   24     5    23  1
   25     5    24  1
   26     6    25  1
   27     7    26  1
   28     8    27  1
   29     9    28  1
   30     9    29  1
   31    12    30  1
   32    12    31  1
   33    18    32  1

@<TRIPOS>MOLECULE
MOL
   32   33    0    0    0
SMALL
USER_CHARGES


@<TRIPOS>ATOM
   1   C1       20.3679    1.5398   30.1124  C.2 1 <0> -0.1356
   2   C2       19.2945    1.8148   29.3741  C.2 1 <0> -0.0410
   3   C3       20.5124    2.3057   31.3778  C.2 1 <0>  0.4856
   4   C4       18.5219    3.4710   30.9602  C.2 1 <0>  0.8408
   5   C5       17.5115    4.0220   27.8095  C.3 1 <0>  0.0000
   6   C6       16.6758    3.5269   26.6518  C.3 1 <0>  0.2800
   7   C7       16.7283    2.0138   26.8111  C.3 1 <0>  0.2800
   8   C8       17.2293    2.9861   28.8854  C.3 1 <0>  0.5801
   9   C9       17.9106    1.3823   26.0876  C.3 1 <0>  0.2800
  10   N1       19.6314    3.2000   31.7425  N.2 1 <0> -0.6611
  11   N2       18.3525    2.7593   29.7471 N.am 1 <0> -0.4690
  12   N3       21.6078    2.0514   32.1699 N.pl3 1 <0> -0.8501
  13   O1       18.7676   -2.3524   26.1510  O.3 1 <0> -1.0332
  14   O2       20.3972   -0.3812   26.2318  O.3 1 <0> -1.0332
  15   O3       17.7019    4.3179   31.3195  O.2 1 <0> -0.5698
  16   O4       18.9314   -0.7527   24.1606  O.2 1 <0> -1.0332
  17   O5       16.8859    1.7620   28.2208  O.3 1 <0> -0.5601
  18   O6       15.3331    3.9840   26.7983  O.3 1 <0> -0.6802
  19   O7       17.9091   -0.0135   26.3390  O.3 1 <0> -0.5513
  20   P1       19.0969   -0.9440   25.6653  P.3 1 <0>  1.3711
  21   H1       21.1079    0.8036   29.8283    H 1 <0>  0.1500
  22   H2       19.1115    1.3019   28.4364    H 1 <0>  0.1500
  23   H3       18.5727    4.1294   27.5584    H 1 <0>  0.0000
  24   H4       17.1548    5.0103   28.1297    H 1 <0>  0.0000
  25   H5       17.0677    3.8683   25.7040    H 1 <0>  0.0000
  26   H6       15.8106    1.5408   26.4789    H 1 <0>  0.0000
  27   H7       16.3861    3.2958   29.5276    H 1 <0>  0.0000
  28   H8       18.8490    1.8078   26.4511    H 1 <0>  0.0000
  29   H9       17.8303    1.5497   25.0110    H 1 <0>  0.0000
  30  H10       22.2559    1.3669   31.8630    H 1 <0>  0.3999
  31  H11       21.7020    2.5637   33.0135    H 1 <0>  0.3999
  32  H12       14.8439    3.8048   25.9920    H 1 <0>  0.3999
@<TRIPOS>BOND
    1     1     2  1
    2     1     3  1
    3     2    11  1
    4     3    10  1
    5     3    12  1
    6     4    10  1
    7     4    11  1
    8     4    15  1
    9     5     6  1
   10     5     8  1
   11     6     7  1
   12     6    18  1
   13     7     9  1
   14     7    17  1
   15     8    11  1
   16     8    17  1
   17     9    19  1
   18    13    20  1
   19    14    20  1
   20    16    20  1
   21    19    20  1
   22     1    21  1
   23     2    22  1
   24     5    23  1
   25     5    24  1
   26     6    25  1
   27     7    26  1
   28     8    27  1
   29     9    28  1
   30     9    29  1
   31    12    30  1
   32    12    31  1
   33    18    32  1

@<TRIPOS>MOLECULE
MOL
   32   33    0    0    0
SMALL
USER_CHARGES


@<TRIPOS>ATOM
   1   C1       20.3953    1.6147   30.0918  C.2 1 <0> -0.1356
   2   C2       19.3144    1.8708   29.3577  C.2 1 <0> -0.0410
   3   C3       20.5425    2.3989   31.3457  C.2 1 <0>  0.4856
   4   C4       18.5394    3.5420   30.9269  C.2 1 <0>  0.8408
   5   C5       17.5018    4.0418   27.7765  C.3 1 <0>  0.0000
   6   C6       16.6620    3.5241   26.6317  C.3 1 <0>  0.2800
   7   C7       16.7283    2.0138   26.8111  C.3 1 <0>  0.2800
   8   C8       17.2360    3.0183   28.8684  C.3 1 <0>  0.5801
   9   C9       17.9106    1.3823   26.0876  C.3 1 <0>  0.2800
  10   N1       19.6567    3.2907   31.7048  N.2 1 <0> -0.6611
  11   N2       18.3672    2.8124   29.7249 N.am 1 <0> -0.4690
  12   N3       21.6456    2.1644   32.1332 N.pl3 1 <0> -0.8501
  13   O1       18.7676   -2.3524   26.1510  O.3 1 <0> -1.0332
  14   O2       20.3972   -0.3812   26.2318  O.3 1 <0> -1.0332
  15   O3       17.7150    4.3868   31.2807  O.2 1 <0> -0.5698
  16   O4       18.9314   -0.7527   24.1606  O.2 1 <0> -1.0332
  17   O5       16.8981    1.7824   28.2229  O.3 1 <0> -0.5601
  18   O6       15.3167    3.9721   26.7819  O.3 1 <0> -0.6802
  19   O7       17.9091   -0.0135   26.3390  O.3 1 <0> -0.5513
  20   P1       19.0969   -0.9440   25.6653  P.3 1 <0>  1.3711
  21   H1       21.1394    0.8808   29.8123    H 1 <0>  0.1500
  22   H2       19.1289    1.3437   28.4285    H 1 <0>  0.1500
  23   H3       18.5603    4.1545   27.5163    H 1 <0>  0.0000
  24   H4       17.1393    5.0314   28.0859    H 1 <0>  0.0000
  25   H5       17.0443    3.8558   25.6766    H 1 <0>  0.0000
  26   H6       15.8122    1.5288   26.4920    H 1 <0>  0.0000
  27   H7       16.3949    3.3297   29.5124    H 1 <0>  0.0000
  28   H8       18.8490    1.8078   26.4511    H 1 <0>  0.0000
  29   H9       17.8303    1.5497   25.0110    H 1 <0>  0.0000
  30  H10       22.2972    1.4811   31.8308    H 1 <0>  0.3999
  31  H11       21.7416    2.6888   32.9690    H 1 <0>  0.3999
  32  H12       14.8232    3.7779   25.9816    H 1 <0>  0.3999
@<TRIPOS>BOND
    1     1     2  1
    2     1     3  1
    3     2    11  1
    4     3    10  1
    5     3    12  1
    6     4    10  1
    7     4    11  1
    8     4    15  1
    9     5     6  1
   10     5     8  1
   11     6     7  1
   12     6    18  1
   13     7     9  1
   14     7    17  1
   15     8    11  1
   16     8    17  1
   17     9    19  1
   18    13    20  1
   19    14    20  1
   20    16    20  1
   21    19    20  1
   22     1    21  1
   23     2    22  1
   24     5    23  1
   25     5    24  1
   26     6    25  1
   27     7    26  1
   28     8    27  1
   29     9    28  1
   30     9    29  1
   31    12    30  1
   32    12    31  1
   33    18    32  1

@<TRIPOS>MOLECULE
MOL
   32   33    0    0    0
SMALL
USER_CHARGES


@<TRIPOS>ATOM
   1   C1       20.4220    1.6895   30.0701  C.2 1 <0> -0.1356
   2   C2       19.3337    1.9267   29.3405  C.2 1 <0> -0.0410
   3   C3       20.5716    2.4918   31.3121  C.2 1 <0>  0.4856
   4   C4       18.5561    3.6126   30.8926  C.2 1 <0>  0.8408
   5   C5       17.4918    4.0610   27.7434  C.3 1 <0>  0.0000
   6   C6       16.6482    3.5209   26.6118  C.3 1 <0>  0.2800
   7   C7       16.7283    2.0138   26.8111  C.3 1 <0>  0.2800
   8   C8       17.2424    3.0503   28.8509  C.3 1 <0>  0.5801
   9   C9       17.9106    1.3823   26.0876  C.3 1 <0>  0.2800
  10   N1       19.6810    3.3811   31.6656  N.2 1 <0> -0.6611
  11   N2       18.3814    2.8654   29.7018 N.am 1 <0> -0.4690
  12   N3       21.6823    2.2772   32.0947 N.pl3 1 <0> -0.8501
  13   O1       18.7676   -2.3524   26.1510  O.3 1 <0> -1.0332
  14   O2       20.3972   -0.3812   26.2318  O.3 1 <0> -1.0332
  15   O3       17.7273    4.4553   31.2409  O.2 1 <0> -0.5698
  16   O4       18.9314   -0.7527   24.1606  O.2 1 <0> -1.0332
  17   O5       16.9102    1.8030   28.2247  O.3 1 <0> -0.5601
  18   O6       15.3002    3.9598   26.7657  O.3 1 <0> -0.6802
  19   O7       17.9091   -0.0135   26.3390  O.3 1 <0> -0.5513
  20   P1       19.0969   -0.9440   25.6653  P.3 1 <0>  1.3711
  21   H1       21.1701    0.9581   29.7951    H 1 <0>  0.1500
  22   H2       19.1460    1.3855   28.4198    H 1 <0>  0.1500
  23   H3       18.5474    4.1789   27.4739    H 1 <0>  0.0000
  24   H4       17.1232    5.0517   28.0420    H 1 <0>  0.0000
  25   H5       17.0207    3.8428   25.6495    H 1 <0>  0.0000
  26   H6       15.8140    1.5170   26.5053    H 1 <0>  0.0000
  27   H7       16.4034    3.3634   29.4967    H 1 <0>  0.0000
  28   H8       18.8490    1.8078   26.4511    H 1 <0>  0.0000
  29   H9       17.8303    1.5497   25.0110    H 1 <0>  0.0000
  30  H10       22.3373    1.5952   31.7968    H 1 <0>  0.3999
  31  H11       21.7799    2.8136   32.9226    H 1 <0>  0.3999
  32  H12       14.8026    3.7507   25.9717    H 1 <0>  0.3999
@<TRIPOS>BOND
    1     1     2  1
    2     1     3  1
    3     2    11  1
    4     3    10  1
    5     3    12  1
    6     4    10  1
    7     4    11  1
    8     4    15  1
    9     5     6  1
   10     5     8  1
   11     6     7  1
   12     6    18  1
   13     7     9  1
   14     7    17  1
   15     8    11  1
   16     8    17  1
   17     9    19  1
   18    13    20  1
   19    14    20  1
   20    16    20  1
   21    19    20  1
   22     1    21  1
   23     2    22  1
   24     5    23  1
   25     5    24  1
   26     6    25  1
   27     7    26  1
   28     8    27  1
   29     9    28  1
   30     9    29  1
   31    12    30  1
   32    12    31  1
   33    18    32  1

@<TRIPOS>MOLECULE
MOL
   32   33    0    0    0
SMALL
USER_CHARGES


@<TRIPOS>ATOM
   1   C1       20.4479    1.7642   30.0472  C.2 1 <0> -0.1356
   2   C2       19.3525    1.9825   29.3224  C.2 1 <0> -0.0410
   3   C3       20.5997    2.5845   31.2771  C.2 1 <0>  0.4856
   4   C4       18.5720    3.6828   30.8571  C.2 1 <0>  0.8408
   5   C5       17.4814    4.0797   27.7100  C.3 1 <0>  0.0000
   6   C6       16.6342    3.5174   26.5920  C.3 1 <0>  0.2800
   7   C7       16.7283    2.0138   26.8111  C.3 1 <0>  0.2800
   8   C8       17.2484    3.0821   28.8329  C.3 1 <0>  0.5801
   9   C9       17.9106    1.3823   26.0876  C.3 1 <0>  0.2800
  10   N1       19.7043    3.4712   31.6250  N.2 1 <0> -0.6611
  11   N2       18.3949    2.9181   29.6779 N.am 1 <0> -0.4690
  12   N3       21.7177    2.3897   32.0544 N.pl3 1 <0> -0.8501
  13   O1       18.7676   -2.3524   26.1510  O.3 1 <0> -1.0332
  14   O2       20.3972   -0.3812   26.2318  O.3 1 <0> -1.0332
  15   O3       17.7386    4.5234   31.2001  O.2 1 <0> -0.5698
  16   O4       18.9314   -0.7527   24.1606  O.2 1 <0> -1.0332
  17   O5       16.9221    1.8237   28.2260  O.3 1 <0> -0.5601
  18   O6       15.2838    3.9472   26.7498  O.3 1 <0> -0.6802
  19   O7       17.9091   -0.0135   26.3390  O.3 1 <0> -0.5513
  20   P1       19.0969   -0.9440   25.6653  P.3 1 <0>  1.3711
  21   H1       21.2001    1.0353   29.7767    H 1 <0>  0.1500
  22   H2       19.1626    1.4273   28.4105    H 1 <0>  0.1500
  23   H3       18.5340    4.2026   27.4313    H 1 <0>  0.0000
  24   H4       17.1067    5.0713   27.9979    H 1 <0>  0.0000
  25   H5       16.9971    3.8292   25.6228    H 1 <0>  0.0000
  26   H6       15.8160    1.5053   26.5187    H 1 <0>  0.0000
  27   H7       16.4114    3.3971   29.4806    H 1 <0>  0.0000
  28   H8       18.8490    1.8078   26.4511    H 1 <0>  0.0000
  29   H9       17.8303    1.5497   25.0110    H 1 <0>  0.0000
  30  H10       22.3763    1.7092   31.7610    H 1 <0>  0.3999
  31  H11       21.8168    2.9381   32.8743    H 1 <0>  0.3999
  32  H12       14.7822    3.7233   25.9624    H 1 <0>  0.3999
@<TRIPOS>BOND
    1     1     2  1
    2     1     3  1
    3     2    11  1
    4     3    10  1
    5     3    12  1
    6     4    10  1
    7     4    11  1
    8     4    15  1
    9     5     6  1
   10     5     8  1
   11     6     7  1
   12     6    18  1
   13     7     9  1
   14     7    17  1
   15     8    11  1
   16     8    17  1
   17     9    19  1
   18    13    20  1
   19    14    20  1
   20    16    20  1
   21    19    20  1
   22     1    21  1
   23     2    22  1
   24     5    23  1
   25     5    24  1
   26     6    25  1
   27     7    26  1
   28     8    27  1
   29     9    28  1
   30     9    29  1
   31    12    30  1
   32    12    31  1
   33    18    32  1

@<TRIPOS>MOLECULE
MOL
   32   33    0    0    0
SMALL
USER_CHARGES


@<TRIPOS>ATOM
   1   C1       20.4730    1.8388   30.0231  C.2 1 <0> -0.1356
   2   C2       19.3706    2.0382   29.3034  C.2 1 <0> -0.0410
   3   C3       20.6268    2.6770   31.2406  C.2 1 <0>  0.4856
   4   C4       18.5870    3.7528   30.8207  C.2 1 <0>  0.8408
   5   C5       17.4706    4.0979   27.6765  C.3 1 <0>  0.0000
   6   C6       16.6201    3.5134   26.5724  C.3 1 <0>  0.2800
   7   C7       16.7283    2.0138   26.8111  C.3 1 <0>  0.2800
   8   C8       17.2539    3.1137   28.8144  C.3 1 <0>  0.5801
   9   C9       17.9106    1.3823   26.0876  C.3 1 <0>  0.2800
  10   N1       19.7265    3.5609   31.5830  N.2 1 <0> -0.6611
  11   N2       18.4079    2.9707   29.6532 N.am 1 <0> -0.4690
  12   N3       21.7519    2.5019   32.0123 N.pl3 1 <0> -0.8501
  13   O1       18.7676   -2.3524   26.1510  O.3 1 <0> -1.0332
  14   O2       20.3972   -0.3812   26.2318  O.3 1 <0> -1.0332
  15   O3       17.7492    4.5910   31.1583  O.2 1 <0> -0.5698
  16   O4       18.9314   -0.7527   24.1606  O.2 1 <0> -1.0332
  17   O5       16.9338    1.8446   28.2270  O.3 1 <0> -0.5601
  18   O6       15.2673    3.9342   26.7342  O.3 1 <0> -0.6802
  19   O7       17.9091   -0.0135   26.3390  O.3 1 <0> -0.5513
  20   P1       19.0969   -0.9440   25.6653  P.3 1 <0>  1.3711
  21   H1       21.2293    1.1125   29.7569    H 1 <0>  0.1500
  22   H2       19.1789    1.4692   28.4005    H 1 <0>  0.1500
  23   H3       18.5201    4.2257   27.3884    H 1 <0>  0.0000
  24   H4       17.0897    5.0901   27.9537    H 1 <0>  0.0000
  25   H5       16.9734    3.8151   25.5964    H 1 <0>  0.0000
  26   H6       15.8182    1.4939   26.5322    H 1 <0>  0.0000
  27   H7       16.4191    3.4305   29.4639    H 1 <0>  0.0000
  28   H8       18.8490    1.8078   26.4511    H 1 <0>  0.0000
  29   H9       17.8303    1.5497   25.0110    H 1 <0>  0.0000
  30  H10       22.4140    1.8230   31.7233    H 1 <0>  0.3999
  31  H11       21.8523    3.0623   32.8240    H 1 <0>  0.3999
  32  H12       14.7620    3.6955   25.9536    H 1 <0>  0.3999
@<TRIPOS>BOND
    1     1     2  1
    2     1     3  1
    3     2    11  1
    4     3    10  1
    5     3    12  1
    6     4    10  1
    7     4    11  1
    8     4    15  1
    9     5     6  1
   10     5     8  1
   11     6     7  1
   12     6    18  1
   13     7     9  1
   14     7    17  1
   15     8    11  1
   16     8    17  1
   17     9    19  1
   18    13    20  1
   19    14    20  1
   20    16    20  1
   21    19    20  1
   22     1    21  1
   23     2    22  1
   24     5    23  1
   25     5    24  1
   26     6    25  1
   27     7    26  1
   28     8    27  1
   29     9    28  1
   30     9    29  1
   31    12    30  1
   32    12    31  1
   33    18    32  1

@<TRIPOS>MOLECULE
MOL
   32   33    0    0    0
SMALL
USER_CHARGES


@<TRIPOS>ATOM
   1   C1       20.4972    1.9133   29.9977  C.2 1 <0> -0.1356
   2   C2       19.3881    2.0939   29.2835  C.2 1 <0> -0.0410
   3   C3       20.6528    2.7692   31.2027  C.2 1 <0>  0.4856
   4   C4       18.6012    3.8223   30.7831  C.2 1 <0>  0.8408
   5   C5       17.4594    4.1155   27.6428  C.3 1 <0>  0.0000
   6   C6       16.6058    3.5091   26.5530  C.3 1 <0>  0.2800
   7   C7       16.7283    2.0138   26.8111  C.3 1 <0>  0.2800
   8   C8       17.2591    3.1451   28.7955  C.3 1 <0>  0.5801
   9   C9       17.9106    1.3823   26.0876  C.3 1 <0>  0.2800
  10   N1       19.7477    3.6502   31.5397  N.2 1 <0> -0.6611
  11   N2       18.4202    3.0230   29.6276 N.am 1 <0> -0.4690
  12   N3       21.7849    2.6139   31.9685 N.pl3 1 <0> -0.8501
  13   O1       18.7676   -2.3524   26.1510  O.3 1 <0> -1.0332
  14   O2       20.3972   -0.3812   26.2318  O.3 1 <0> -1.0332
  15   O3       17.7588    4.6581   31.1155  O.2 1 <0> -0.5698
  16   O4       18.9314   -0.7527   24.1606  O.2 1 <0> -1.0332
  17   O5       16.9454    1.8655   28.2276  O.3 1 <0> -0.5601
  18   O6       15.2508    3.9209   26.7189  O.3 1 <0> -0.6802
  19   O7       17.9091   -0.0135   26.3390  O.3 1 <0> -0.5513
  20   P1       19.0969   -0.9440   25.6653  P.3 1 <0>  1.3711
  21   H1       21.2576    1.1897   29.7359    H 1 <0>  0.1500
  22   H2       19.1947    1.5110   28.3898    H 1 <0>  0.1500
  23   H3       18.5057    4.2480   27.3454    H 1 <0>  0.0000
  24   H4       17.0722    5.1082   27.9093    H 1 <0>  0.0000
  25   H5       16.9497    3.8004   25.5704    H 1 <0>  0.0000
  26   H6       15.8206    1.4827   26.5459    H 1 <0>  0.0000
  27   H7       16.4263    3.4638   29.4466    H 1 <0>  0.0000
  28   H8       18.8490    1.8078   26.4511    H 1 <0>  0.0000
  29   H9       17.8303    1.5497   25.0110    H 1 <0>  0.0000
  30  H10       22.4505    1.9365   31.6839    H 1 <0>  0.3999
  31  H11       21.8864    3.1860   32.7717    H 1 <0>  0.3999
  32  H12       14.7420    3.6674   25.9453    H 1 <0>  0.3999
@<TRIPOS>BOND
    1     1     2  1
    2     1     3  1
    3     2    11  1
    4     3    10  1
    5     3    12  1
    6     4    10  1
    7     4    11  1
    8     4    15  1
    9     5     6  1
   10     5     8  1
   11     6     7  1
   12     6    18  1
   13     7     9  1
   14     7    17  1
   15     8    11  1
   16     8    17  1
   17     9    19  1
   18    13    20  1
   19    14    20  1
   20    16    20  1
   21    19    20  1
   22     1    21  1
   23     2    22  1
   24     5    23  1
   25     5    24  1
   26     6    25  1
   27     7    26  1
   28     8    27  1
   29     9    28  1
   30     9    29  1
   31    12    30  1
   32    12    31  1
   33    18    32  1

@<TRIPOS>MOLECULE
MOL
   32   33    0    0    0
SMALL
USER_CHARGES


@<TRIPOS>ATOM
   1   C1       20.5207    1.9876   29.9712  C.2 1 <0> -0.1356
   2   C2       19.4051    2.1493   29.2627  C.2 1 <0> -0.0410
   3   C3       20.6778    2.8611   31.1634  C.2 1 <0>  0.4856
   4   C4       18.6145    3.8914   30.7446  C.2 1 <0>  0.8408
   5   C5       17.4478    4.1325   27.6090  C.3 1 <0>  0.0000
   6   C6       16.5915    3.5044   26.5337  C.3 1 <0>  0.2800
   7   C7       16.7283    2.0138   26.8111  C.3 1 <0>  0.2800
   8   C8       17.2639    3.1763   28.7761  C.3 1 <0>  0.5801
   9   C9       17.9106    1.3823   26.0876  C.3 1 <0>  0.2800
  10   N1       19.7678    3.7391   31.4950  N.2 1 <0> -0.6611
  11   N2       18.4319    3.0750   29.6013 N.am 1 <0> -0.4690
  12   N3       21.8166    2.7255   31.9229 N.pl3 1 <0> -0.8501
  13   O1       18.7676   -2.3524   26.1510  O.3 1 <0> -1.0332
  14   O2       20.3972   -0.3812   26.2318  O.3 1 <0> -1.0332
  15   O3       17.7676    4.7247   31.0717  O.2 1 <0> -0.5698
  16   O4       18.9314   -0.7527   24.1606  O.2 1 <0> -1.0332
  17   O5       16.9567    1.8866   28.2279  O.3 1 <0> -0.5601
  18   O6       15.2343    3.9072   26.7039  O.3 1 <0> -0.6802
  19   O7       17.9091   -0.0135   26.3390  O.3 1 <0> -0.5513
  20   P1       19.0969   -0.9440   25.6653  P.3 1 <0>  1.3711
  21   H1       21.2852    1.2669   29.7137    H 1 <0>  0.1500
  22   H2       19.2100    1.5528   28.3784    H 1 <0>  0.1500
  23   H3       18.4908    4.2696   27.3022    H 1 <0>  0.0000
  24   H4       17.0543    5.1256   27.8649    H 1 <0>  0.0000
  25   H5       16.9259    3.7851   25.5448    H 1 <0>  0.0000
  26   H6       15.8232    1.4717   26.5598    H 1 <0>  0.0000
  27   H7       16.4332    3.4969   29.4289    H 1 <0>  0.0000
  28   H8       18.8490    1.8078   26.4511    H 1 <0>  0.0000
  29   H9       17.8303    1.5497   25.0110    H 1 <0>  0.0000
  30  H10       22.4858    2.0499   31.6426    H 1 <0>  0.3999
  31  H11       21.9191    3.3093   32.7176    H 1 <0>  0.3999
  32  H12       14.7221    3.6391   25.9375    H 1 <0>  0.3999
@<TRIPOS>BOND
    1     1     2  1
    2     1     3  1
    3     2    11  1
    4     3    10  1
    5     3    12  1
    6     4    10  1
    7     4    11  1
    8     4    15  1
    9     5     6  1
   10     5     8  1
   11     6     7  1
   12     6    18  1
   13     7     9  1
   14     7    17  1
   15     8    11  1
   16     8    17  1
   17     9    19  1
   18    13    20  1
   19    14    20  1
   20    16    20  1
   21    19    20  1
   22     1    21  1
   23     2    22  1
   24     5    23  1
   25     5    24  1
   26     6    25  1
   27     7    26  1
   28     8    27  1
   29     9    28  1
   30     9    29  1
   31    12    30  1
   32    12    31  1
   33    18    32  1

@<TRIPOS>MOLECULE
MOL
   32   33    0    0    0
SMALL
USER_CHARGES


@<TRIPOS>ATOM
   1   C1       20.5434    2.0618   29.9436  C.2 1 <0> -0.1356
   2   C2       19.4214    2.2047   29.2411  C.2 1 <0> -0.0410
   3   C3       20.7017    2.9526   31.1226  C.2 1 <0>  0.4856
   4   C4       18.6270    3.9601   30.7050  C.2 1 <0>  0.8408
   5   C5       17.4358    4.1490   27.5750  C.3 1 <0>  0.0000
   6   C6       16.5771    3.4993   26.5146  C.3 1 <0>  0.2800
   7   C7       16.7283    2.0138   26.8111  C.3 1 <0>  0.2800
   8   C8       17.2683    3.2072   28.7562  C.3 1 <0>  0.5801
   9   C9       17.9106    1.3823   26.0876  C.3 1 <0>  0.2800
  10   N1       19.7869    3.8275   31.4489  N.2 1 <0> -0.6611
  11   N2       18.4430    3.1268   29.5742 N.am 1 <0> -0.4690
  12   N3       21.8471    2.8367   31.8756 N.pl3 1 <0> -0.8501
  13   O1       18.7676   -2.3524   26.1510  O.3 1 <0> -1.0332
  14   O2       20.3972   -0.3812   26.2318  O.3 1 <0> -1.0332
  15   O3       17.7755    4.7908   31.0270  O.2 1 <0> -0.5698
  16   O4       18.9314   -0.7527   24.1606  O.2 1 <0> -1.0332
  17   O5       16.9680    1.9077   28.2278  O.3 1 <0> -0.5601
  18   O6       15.2179    3.8932   26.6892  O.3 1 <0> -0.6802
  19   O7       17.9091   -0.0135   26.3390  O.3 1 <0> -0.5513
  20   P1       19.0969   -0.9440   25.6653  P.3 1 <0>  1.3711
  21   H1       21.3120    1.3439   29.6902    H 1 <0>  0.1500
  22   H2       19.2250    1.5946   28.3664    H 1 <0>  0.1500
  23   H3       18.4754    4.2905   27.2588    H 1 <0>  0.0000
  24   H4       17.0359    5.1422   27.8203    H 1 <0>  0.0000
  25   H5       16.9020    3.7693   25.5196    H 1 <0>  0.0000
  26   H6       15.8259    1.4609   26.5737    H 1 <0>  0.0000
  27   H7       16.4396    3.5298   29.4107    H 1 <0>  0.0000
  28   H8       18.8490    1.8078   26.4511    H 1 <0>  0.0000
  29   H9       17.8303    1.5497   25.0110    H 1 <0>  0.0000
  30  H10       22.5199    2.1629   31.5996    H 1 <0>  0.3999
  31  H11       21.9504    3.4321   32.6615    H 1 <0>  0.3999
  32  H12       14.7024    3.6105   25.9303    H 1 <0>  0.3999
@<TRIPOS>BOND
    1     1     2  1
    2     1     3  1
    3     2    11  1
    4     3    10  1
    5     3    12  1
    6     4    10  1
    7     4    11  1
    8     4    15  1
    9     5     6  1
   10     5     8  1
   11     6     7  1
   12     6    18  1
   13     7     9  1
   14     7    17  1
   15     8    11  1
   16     8    17  1
   17     9    19  1
   18    13    20  1
   19    14    20  1
   20    16    20  1
   21    19    20  1
   22     1    21  1
   23     2    22  1
   24     5    23  1
   25     5    24  1
   26     6    25  1
   27     7    26  1
   28     8    27  1
   29     9    28  1
   30     9    29  1
   31    12    30  1
   32    12    31  1
   33    18    32  1

@<TRIPOS>MOLECULE
MOL
   32   33    0    0    0
SMALL
USER_CHARGES


@<TRIPOS>ATOM
   1   C1       20.5653    2.1358   29.9147  C.2 1 <0> -0.1356
   2   C2       19.4371    2.2598   29.2186  C.2 1 <0> -0.0410
   3   C3       20.7246    3.0438   31.0805  C.2 1 <0>  0.4856
   4   C4       18.6386    4.0284   30.6644  C.2 1 <0>  0.8408
   5   C5       17.4234    4.1649   27.5409  C.3 1 <0>  0.0000
   6   C6       16.5626    3.4939   26.4956  C.3 1 <0>  0.2800
   7   C7       16.7283    2.0138   26.8111  C.3 1 <0>  0.2800
   8   C8       17.2723    3.2379   28.7359  C.3 1 <0>  0.5801
   9   C9       17.9106    1.3823   26.0876  C.3 1 <0>  0.2800
  10   N1       19.8049    3.9154   31.4016  N.2 1 <0> -0.6611
  11   N2       18.4534    3.1783   29.5464 N.am 1 <0> -0.4690
  12   N3       21.8763    2.9476   31.8265 N.pl3 1 <0> -0.8501
  13   O1       18.7676   -2.3524   26.1510  O.3 1 <0> -1.0332
  14   O2       20.3972   -0.3812   26.2318  O.3 1 <0> -1.0332
  15   O3       17.7826    4.8563   30.9813  O.2 1 <0> -0.5698
  16   O4       18.9314   -0.7527   24.1606  O.2 1 <0> -1.0332
  17   O5       16.9790    1.9289   28.2273  O.3 1 <0> -0.5601
  18   O6       15.2014    3.8789   26.6749  O.3 1 <0> -0.6802
  19   O7       17.9091   -0.0135   26.3390  O.3 1 <0> -0.5513
  20   P1       19.0969   -0.9440   25.6653  P.3 1 <0>  1.3711
  21   H1       21.3380    1.4209   29.6655    H 1 <0>  0.1500
  22   H2       19.2395    1.6364   28.3536    H 1 <0>  0.1500
  23   H3       18.4595    4.3107   27.2152    H 1 <0>  0.0000
  24   H4       17.0170    5.1580   27.7757    H 1 <0>  0.0000
  25   H5       16.8781    3.7530   25.4947    H 1 <0>  0.0000
  26   H6       15.8289    1.4503   26.5878    H 1 <0>  0.0000
  27   H7       16.4457    3.5626   29.3920    H 1 <0>  0.0000
  28   H8       18.8490    1.8078   26.4511    H 1 <0>  0.0000
  29   H9       17.8303    1.5497   25.0110    H 1 <0>  0.0000
  30  H10       22.5526    2.2756   31.5548    H 1 <0>  0.3999
  31  H11       21.9803    3.5544   32.6036    H 1 <0>  0.3999
  32  H12       14.6829    3.5816   25.9236    H 1 <0>  0.3999
@<TRIPOS>BOND
    1     1     2  1
    2     1     3  1
    3     2    11  1
    4     3    10  1
    5     3    12  1
    6     4    10  1
    7     4    11  1
    8     4    15  1
    9     5     6  1
   10     5     8  1
   11     6     7  1
   12     6    18  1
   13     7     9  1
   14     7    17  1
   15     8    11  1
   16     8    17  1
   17     9    19  1
   18    13    20  1
   19    14    20  1
   20    16    20  1
   21    19    20  1
   22     1    21  1
   23     2    22  1
   24     5    23  1
   25     5    24  1
   26     6    25  1
   27     7    26  1
   28     8    27  1
   29     9    28  1
   30     9    29  1
   31    12    30  1
   32    12    31  1
   33    18    32  1

@<TRIPOS>MOLECULE
MOL
   32   33    0    0    0
SMALL
USER_CHARGES


@<TRIPOS>ATOM
   1   C1       20.5863    2.2095   29.8847  C.2 1 <0> -0.1356
   2   C2       19.4521    2.3148   29.1952  C.2 1 <0> -0.0410
   3   C3       20.7464    3.1345   31.0369  C.2 1 <0>  0.4856
   4   C4       18.6493    4.0962   30.6227  C.2 1 <0>  0.8408
   5   C5       17.4107    4.1803   27.5067  C.3 1 <0>  0.0000
   6   C6       16.5480    3.4880   26.4769  C.3 1 <0>  0.2800
   7   C7       16.7283    2.0138   26.8111  C.3 1 <0>  0.2800
   8   C8       17.2758    3.2684   28.7152  C.3 1 <0>  0.5801
   9   C9       17.9106    1.3823   26.0876  C.3 1 <0>  0.2800
  10   N1       19.8218    4.0029   31.3529  N.2 1 <0> -0.6611
  11   N2       18.4632    3.2295   29.5177 N.am 1 <0> -0.4690
  12   N3       21.9042    3.0580   31.7758 N.pl3 1 <0> -0.8501
  13   O1       18.7676   -2.3524   26.1510  O.3 1 <0> -1.0332
  14   O2       20.3972   -0.3812   26.2318  O.3 1 <0> -1.0332
  15   O3       17.7888    4.9212   30.9347  O.2 1 <0> -0.5698
  16   O4       18.9314   -0.7527   24.1606  O.2 1 <0> -1.0332
  17   O5       16.9899    1.9502   28.2264  O.3 1 <0> -0.5601
  18   O6       15.1850    3.8642   26.6608  O.3 1 <0> -0.6802
  19   O7       17.9091   -0.0135   26.3390  O.3 1 <0> -0.5513
  20   P1       19.0969   -0.9440   25.6653  P.3 1 <0>  1.3711
  21   H1       21.3632    1.4977   29.6396    H 1 <0>  0.1500
  22   H2       19.2536    1.6781   28.3402    H 1 <0>  0.1500
  23   H3       18.4431    4.3302   27.1715    H 1 <0>  0.0000
  24   H4       16.9977    5.1731   27.7309    H 1 <0>  0.0000
  25   H5       16.8541    3.7362   25.4703    H 1 <0>  0.0000
  26   H6       15.8321    1.4399   26.6020    H 1 <0>  0.0000
  27   H7       16.4513    3.5951   29.3729    H 1 <0>  0.0000
  28   H8       18.8490    1.8078   26.4511    H 1 <0>  0.0000
  29   H9       17.8303    1.5497   25.0110    H 1 <0>  0.0000
  30  H10       22.5842    2.3880   31.5082    H 1 <0>  0.3999
  31  H11       22.0087    3.6761   32.5438    H 1 <0>  0.3999
  32  H12       14.6635    3.5525   25.9174    H 1 <0>  0.3999
@<TRIPOS>BOND
    1     1     2  1
    2     1     3  1
    3     2    11  1
    4     3    10  1
    5     3    12  1
    6     4    10  1
    7     4    11  1
    8     4    15  1
    9     5     6  1
   10     5     8  1
   11     6     7  1
   12     6    18  1
   13     7     9  1
   14     7    17  1
   15     8    11  1
   16     8    17  1
   17     9    19  1
   18    13    20  1
   19    14    20  1
   20    16    20  1
   21    19    20  1
   22     1    21  1
   23     2    22  1
   24     5    23  1
   25     5    24  1
   26     6    25  1
   27     7    26  1
   28     8    27  1
   29     9    28  1
   30     9    29  1
   31    12    30  1
   32    12    31  1
   33    18    32  1

@<TRIPOS>MOLECULE
MOL
   32   33    0    0    0
SMALL
USER_CHARGES


@<TRIPOS>ATOM
   1   C1       20.6065    2.2830   29.8536  C.2 1 <0> -0.1356
   2   C2       19.4666    2.3696   29.1710  C.2 1 <0> -0.0410
   3   C3       20.7672    3.2249   30.9919  C.2 1 <0>  0.4856
   4   C4       18.6592    4.1635   30.5801  C.2 1 <0>  0.8408
   5   C5       17.3976    4.1951   27.4723  C.3 1 <0>  0.0000
   6   C6       16.5333    3.4818   26.4583  C.3 1 <0>  0.2800
   7   C7       16.7283    2.0138   26.8111  C.3 1 <0>  0.2800
   8   C8       17.2790    3.2986   28.6940  C.3 1 <0>  0.5801
   9   C9       17.9106    1.3823   26.0876  C.3 1 <0>  0.2800
  10   N1       19.8376    4.0898   31.3029  N.2 1 <0> -0.6611
  11   N2       18.4724    3.2804   29.4883 N.am 1 <0> -0.4690
  12   N3       21.9308    3.1679   31.7233 N.pl3 1 <0> -0.8501
  13   O1       18.7676   -2.3524   26.1510  O.3 1 <0> -1.0332
  14   O2       20.3972   -0.3812   26.2318  O.3 1 <0> -1.0332
  15   O3       17.7941    4.9856   30.8872  O.2 1 <0> -0.5698
  16   O4       18.9314   -0.7527   24.1606  O.2 1 <0> -1.0332
  17   O5       17.0005    1.9716   28.2252  O.3 1 <0> -0.5601
  18   O6       15.1686    3.8492   26.6471  O.3 1 <0> -0.6802
  19   O7       17.9091   -0.0135   26.3390  O.3 1 <0> -0.5513
  20   P1       19.0969   -0.9440   25.6653  P.3 1 <0>  1.3711
  21   H1       21.3875    1.5744   29.6124    H 1 <0>  0.1500
  22   H2       19.2672    1.7197   28.3262    H 1 <0>  0.1500
  23   H3       18.4263    4.3489   27.1277    H 1 <0>  0.0000
  24   H4       16.9780    5.1874   27.6862    H 1 <0>  0.0000
  25   H5       16.8301    3.7188   25.4463    H 1 <0>  0.0000
  26   H6       15.8354    1.4298   26.6163    H 1 <0>  0.0000
  27   H7       16.4565    3.6274   29.3532    H 1 <0>  0.0000
  28   H8       18.8490    1.8078   26.4511    H 1 <0>  0.0000
  29   H9       17.8303    1.5497   25.0110    H 1 <0>  0.0000
  30  H10       22.6144    2.5000   31.4599    H 1 <0>  0.3999
  31  H11       22.0357    3.7972   32.4821    H 1 <0>  0.3999
  32  H12       14.6444    3.5232   25.9118    H 1 <0>  0.3999
@<TRIPOS>BOND
    1     1     2  1
    2     1     3  1
    3     2    11  1
    4     3    10  1
    5     3    12  1
    6     4    10  1
    7     4    11  1
    8     4    15  1
    9     5     6  1
   10     5     8  1
   11     6     7  1
   12     6    18  1
   13     7     9  1
   14     7    17  1
   15     8    11  1
   16     8    17  1
   17     9    19  1
   18    13    20  1
   19    14    20  1
   20    16    20  1
   21    19    20  1
   22     1    21  1
   23     2    22  1
   24     5    23  1
   25     5    24  1
   26     6    25  1
   27     7    26  1
   28     8    27  1
   29     9    28  1
   30     9    29  1
   31    12    30  1
   32    12    31  1
   33    18    32  1

@<TRIPOS>MOLECULE
MOL
   32   33    0    0    0
SMALL
USER_CHARGES


@<TRIPOS>ATOM
   1   C1       20.6259    2.3562   29.8213  C.2 1 <0> -0.1356
   2   C2       19.4804    2.4241   29.1459  C.2 1 <0> -0.0410
   3   C3       20.7869    3.3148   30.9456  C.2 1 <0>  0.4856
   4   C4       18.6682    4.2303   30.5366  C.2 1 <0>  0.8408
   5   C5       17.3841    4.2093   27.4379  C.3 1 <0>  0.0000
   6   C6       16.5186    3.4752   26.4399  C.3 1 <0>  0.2800
   7   C7       16.7283    2.0138   26.8111  C.3 1 <0>  0.2800
   8   C8       17.2818    3.3285   28.6724  C.3 1 <0>  0.5801
   9   C9       17.9106    1.3823   26.0876  C.3 1 <0>  0.2800
  10   N1       19.8524    4.1761   31.2517  N.2 1 <0> -0.6611
  11   N2       18.4810    3.3310   29.4582 N.am 1 <0> -0.4690
  12   N3       21.9561    3.2773   31.6692 N.pl3 1 <0> -0.8501
  13   O1       18.7676   -2.3524   26.1510  O.3 1 <0> -1.0332
  14   O2       20.3972   -0.3812   26.2318  O.3 1 <0> -1.0332
  15   O3       17.7985    5.0493   30.8388  O.2 1 <0> -0.5698
  16   O4       18.9314   -0.7527   24.1606  O.2 1 <0> -1.0332
  17   O5       17.0110    1.9930   28.2236  O.3 1 <0> -0.5601
  18   O6       15.1522    3.8339   26.6336  O.3 1 <0> -0.6802
  19   O7       17.9091   -0.0135   26.3390  O.3 1 <0> -0.5513
  20   P1       19.0969   -0.9440   25.6653  P.3 1 <0>  1.3711
  21   H1       21.4110    1.6508   29.5841    H 1 <0>  0.1500
  22   H2       19.2804    1.7612   28.3115    H 1 <0>  0.1500
  23   H3       18.4090    4.3669   27.0837    H 1 <0>  0.0000
  24   H4       16.9578    5.2009   27.6413    H 1 <0>  0.0000
  25   H5       16.8061    3.7009   25.4226    H 1 <0>  0.0000
  26   H6       15.8389    1.4198   26.6307    H 1 <0>  0.0000
  27   H7       16.4613    3.6594   29.3331    H 1 <0>  0.0000
  28   H8       18.8490    1.8078   26.4511    H 1 <0>  0.0000
  29   H9       17.8303    1.5497   25.0110    H 1 <0>  0.0000
  30  H10       22.6434    2.6115   31.4099    H 1 <0>  0.3999
  31  H11       22.0612    3.9177   32.4186    H 1 <0>  0.3999
  32  H12       14.6255    3.4936   25.9067    H 1 <0>  0.3999
@<TRIPOS>BOND
    1     1     2  1
    2     1     3  1
    3     2    11  1
    4     3    10  1
    5     3    12  1
    6     4    10  1
    7     4    11  1
    8     4    15  1
    9     5     6  1
   10     5     8  1
   11     6     7  1
   12     6    18  1
   13     7     9  1
   14     7    17  1
   15     8    11  1
   16     8    17  1
   17     9    19  1
   18    13    20  1
   19    14    20  1
   20    16    20  1
   21    19    20  1
   22     1    21  1
   23     2    22  1
   24     5    23  1
   25     5    24  1
   26     6    25  1
   27     7    26  1
   28     8    27  1
   29     9    28  1
   30     9    29  1
   31    12    30  1
   32    12    31  1
   33    18    32  1

@<TRIPOS>MOLECULE
MOL
   32   33    0    0    0
SMALL
USER_CHARGES


@<TRIPOS>ATOM
   1   C1       20.6444    2.4292   29.7879  C.2 1 <0> -0.1356
   2   C2       19.4936    2.4785   29.1201  C.2 1 <0> -0.0410
   3   C3       20.8054    3.4042   30.8980  C.2 1 <0>  0.4856
   4   C4       18.6764    4.2966   30.4920  C.2 1 <0>  0.8408
   5   C5       17.3702    4.2229   27.4034  C.3 1 <0>  0.0000
   6   C6       16.5037    3.4683   26.4217  C.3 1 <0>  0.2800
   7   C7       16.7283    2.0138   26.8111  C.3 1 <0>  0.2800
   8   C8       17.2842    3.3582   28.6504  C.3 1 <0>  0.5801
   9   C9       17.9106    1.3823   26.0876  C.3 1 <0>  0.2800
  10   N1       19.8660    4.2619   31.1991  N.2 1 <0> -0.6611
  11   N2       18.4889    3.3812   29.4273 N.am 1 <0> -0.4690
  12   N3       21.9801    3.3862   31.6134 N.pl3 1 <0> -0.8501
  13   O1       18.7676   -2.3524   26.1510  O.3 1 <0> -1.0332
  14   O2       20.3972   -0.3812   26.2318  O.3 1 <0> -1.0332
  15   O3       17.8020    5.1125   30.7895  O.2 1 <0> -0.5698
  16   O4       18.9314   -0.7527   24.1606  O.2 1 <0> -1.0332
  17   O5       17.0213    2.0146   28.2217  O.3 1 <0> -0.5601
  18   O6       15.1358    3.8183   26.6206  O.3 1 <0> -0.6802
  19   O7       17.9091   -0.0135   26.3390  O.3 1 <0> -0.5513
  20   P1       19.0969   -0.9440   25.6653  P.3 1 <0>  1.3711
  21   H1       21.4336    1.7271   29.5545    H 1 <0>  0.1500
  22   H2       19.2931    1.8026   28.2961    H 1 <0>  0.1500
  23   H3       18.3912    4.3841   27.0396    H 1 <0>  0.0000
  24   H4       16.9371    5.2137   27.5965    H 1 <0>  0.0000
  25   H5       16.7820    3.6824   25.3994    H 1 <0>  0.0000
  26   H6       15.8426    1.4101   26.6453    H 1 <0>  0.0000
  27   H7       16.4657    3.6913   29.3125    H 1 <0>  0.0000
  28   H8       18.8490    1.8078   26.4511    H 1 <0>  0.0000
  29   H9       17.8303    1.5497   25.0110    H 1 <0>  0.0000
  30  H10       22.6711    2.7226   31.3581    H 1 <0>  0.3999
  31  H11       22.0852    4.0376   32.3534    H 1 <0>  0.3999
  32  H12       14.6068    3.4638   25.9021    H 1 <0>  0.3999
@<TRIPOS>BOND
    1     1     2  1
    2     1     3  1
    3     2    11  1
    4     3    10  1
    5     3    12  1
    6     4    10  1
    7     4    11  1
    8     4    15  1
    9     5     6  1
   10     5     8  1
   11     6     7  1
   12     6    18  1
   13     7     9  1
   14     7    17  1
   15     8    11  1
   16     8    17  1
   17     9    19  1
   18    13    20  1
   19    14    20  1
   20    16    20  1
   21    19    20  1
   22     1    21  1
   23     2    22  1
   24     5    23  1
   25     5    24  1
   26     6    25  1
   27     7    26  1
   28     8    27  1
   29     9    28  1
   30     9    29  1
   31    12    30  1
   32    12    31  1
   33    18    32  1

@<TRIPOS>MOLECULE
MOL
   32   33    0    0    0
SMALL
USER_CHARGES


@<TRIPOS>ATOM
   1   C1       20.6621    2.5018   29.7534  C.2 1 <0> -0.1356
   2   C2       19.5061    2.5325   29.0933  C.2 1 <0> -0.0410
   3   C3       20.8229    3.4931   30.8490  C.2 1 <0>  0.4856
   4   C4       18.6836    4.3624   30.4465  C.2 1 <0>  0.8408
   5   C5       17.3560    4.2360   27.3687  C.3 1 <0>  0.0000
   6   C6       16.4888    3.4610   26.4038  C.3 1 <0>  0.2800
   7   C7       16.7283    2.0138   26.8111  C.3 1 <0>  0.2800
   8   C8       17.2861    3.3876   28.6279  C.3 1 <0>  0.5801
   9   C9       17.9106    1.3823   26.0876  C.3 1 <0>  0.2800
  10   N1       19.8786    4.3470   31.1453  N.2 1 <0> -0.6611
  11   N2       18.4962    3.4311   29.3956 N.am 1 <0> -0.4690
  12   N3       22.0029    3.4945   31.5560 N.pl3 1 <0> -0.8501
  13   O1       18.7676   -2.3524   26.1510  O.3 1 <0> -1.0332
  14   O2       20.3972   -0.3812   26.2318  O.3 1 <0> -1.0332
  15   O3       17.8047    5.1749   30.7393  O.2 1 <0> -0.5698
  16   O4       18.9314   -0.7527   24.1606  O.2 1 <0> -1.0332
  17   O5       17.0314    2.0361   28.2194  O.3 1 <0> -0.5601
  18   O6       15.1195    3.8023   26.6078  O.3 1 <0> -0.6802
  19   O7       17.9091   -0.0135   26.3390  O.3 1 <0> -0.5513
  20   P1       19.0969   -0.9440   25.6653  P.3 1 <0>  1.3711
  21   H1       21.4554    1.8032   29.5237    H 1 <0>  0.1500
  22   H2       19.3054    1.8440   28.2801    H 1 <0>  0.1500
  23   H3       18.3730    4.4007   26.9954    H 1 <0>  0.0000
  24   H4       16.9161    5.2257   27.5516    H 1 <0>  0.0000
  25   H5       16.7580    3.6635   25.3766    H 1 <0>  0.0000
  26   H6       15.8465    1.4007   26.6599    H 1 <0>  0.0000
  27   H7       16.4697    3.7229   29.2914    H 1 <0>  0.0000
  28   H8       18.8490    1.8078   26.4511    H 1 <0>  0.0000
  29   H9       17.8303    1.5497   25.0110    H 1 <0>  0.0000
  30  H10       22.6974    2.8332   31.3046    H 1 <0>  0.3999
  31  H11       22.1078    4.1567   32.2863    H 1 <0>  0.3999
  32  H12       14.5883    3.4338   25.8981    H 1 <0>  0.3999
@<TRIPOS>BOND
    1     1     2  1
    2     1     3  1
    3     2    11  1
    4     3    10  1
    5     3    12  1
    6     4    10  1
    7     4    11  1
    8     4    15  1
    9     5     6  1
   10     5     8  1
   11     6     7  1
   12     6    18  1
   13     7     9  1
   14     7    17  1
   15     8    11  1
   16     8    17  1
   17     9    19  1
   18    13    20  1
   19    14    20  1
   20    16    20  1
   21    19    20  1
   22     1    21  1
   23     2    22  1
   24     5    23  1
   25     5    24  1
   26     6    25  1
   27     7    26  1
   28     8    27  1
   29     9    28  1
   30     9    29  1
   31    12    30  1
   32    12    31  1
   33    18    32  1

@<TRIPOS>MOLECULE
MOL
   32   33    0    0    0
SMALL
USER_CHARGES


@<TRIPOS>ATOM
   1   C1       20.6789    2.5741   29.7178  C.2 1 <0> -0.1356
   2   C2       19.5180    2.5863   29.0658  C.2 1 <0> -0.0410
   3   C3       20.8394    3.5815   30.7986  C.2 1 <0>  0.4856
   4   C4       18.6900    4.4275   30.4001  C.2 1 <0>  0.8408
   5   C5       17.3415    4.2485   27.3341  C.3 1 <0>  0.0000
   6   C6       16.4738    3.4533   26.3860  C.3 1 <0>  0.2800
   7   C7       16.7283    2.0138   26.8111  C.3 1 <0>  0.2800
   8   C8       17.2877    3.4167   28.6051  C.3 1 <0>  0.5801
   9   C9       17.9106    1.3823   26.0876  C.3 1 <0>  0.2800
  10   N1       19.8901    4.4316   31.0903  N.2 1 <0> -0.6611
  11   N2       18.5028    3.4805   29.3633 N.am 1 <0> -0.4690
  12   N3       22.0243    3.6022   31.4970 N.pl3 1 <0> -0.8501
  13   O1       18.7676   -2.3524   26.1510  O.3 1 <0> -1.0332
  14   O2       20.3972   -0.3812   26.2318  O.3 1 <0> -1.0332
  15   O3       17.8065    5.2367   30.6883  O.2 1 <0> -0.5698
  16   O4       18.9314   -0.7527   24.1606  O.2 1 <0> -1.0332
  17   O5       17.0413    2.0577   28.2167  O.3 1 <0> -0.5601
  18   O6       15.1032    3.7861   26.5954  O.3 1 <0> -0.6802
  19   O7       17.9091   -0.0135   26.3390  O.3 1 <0> -0.5513
  20   P1       19.0969   -0.9440   25.6653  P.3 1 <0>  1.3711
  21   H1       21.4764    1.8790   29.4918    H 1 <0>  0.1500
  22   H2       19.3172    1.8852   28.2634    H 1 <0>  0.1500
  23   H3       18.3543    4.4164   26.9511    H 1 <0>  0.0000
  24   H4       16.8946    5.2369   27.5068    H 1 <0>  0.0000
  25   H5       16.7339    3.6441   25.3543    H 1 <0>  0.0000
  26   H6       15.8506    1.3914   26.6747    H 1 <0>  0.0000
  27   H7       16.4733    3.7542   29.2699    H 1 <0>  0.0000
  28   H8       18.8490    1.8078   26.4511    H 1 <0>  0.0000
  29   H9       17.8303    1.5497   25.0110    H 1 <0>  0.0000
  30  H10       22.7225    2.9433   31.2495    H 1 <0>  0.3999
  31  H11       22.1290    4.2751   32.2174    H 1 <0>  0.3999
  32  H12       14.5700    3.4036   25.8946    H 1 <0>  0.3999
@<TRIPOS>BOND
    1     1     2  1
    2     1     3  1
    3     2    11  1
    4     3    10  1
    5     3    12  1
    6     4    10  1
    7     4    11  1
    8     4    15  1
    9     5     6  1
   10     5     8  1
   11     6     7  1
   12     6    18  1
   13     7     9  1
   14     7    17  1
   15     8    11  1
   16     8    17  1
   17     9    19  1
   18    13    20  1
   19    14    20  1
   20    16    20  1
   21    19    20  1
   22     1    21  1
   23     2    22  1
   24     5    23  1
   25     5    24  1
   26     6    25  1
   27     7    26  1
   28     8    27  1
   29     9    28  1
   30     9    29  1
   31    12    30  1
   32    12    31  1
   33    18    32  1

@<TRIPOS>MOLECULE
MOL
   32   33    0    0    0
SMALL
USER_CHARGES


@<TRIPOS>ATOM
   1   C1       20.6948    2.6461   29.6810  C.2 1 <0> -0.1356
   2   C2       19.5292    2.6399   29.0375  C.2 1 <0> -0.0410
   3   C3       20.8547    3.6693   30.7470  C.2 1 <0>  0.4856
   4   C4       18.6956    4.4921   30.3527  C.2 1 <0>  0.8408
   5   C5       17.3265    4.2603   27.2993  C.3 1 <0>  0.0000
   6   C6       16.4588    3.4452   26.3684  C.3 1 <0>  0.2800
   7   C7       16.7283    2.0138   26.8111  C.3 1 <0>  0.2800
   8   C8       17.2888    3.4454   28.5818  C.3 1 <0>  0.5801
   9   C9       17.9106    1.3823   26.0876  C.3 1 <0>  0.2800
  10   N1       19.9004    4.5154   31.0341  N.2 1 <0> -0.6611
  11   N2       18.5088    3.5296   29.3302 N.am 1 <0> -0.4690
  12   N3       22.0443    3.7093   31.4363 N.pl3 1 <0> -0.8501
  13   O1       18.7676   -2.3524   26.1510  O.3 1 <0> -1.0332
  14   O2       20.3972   -0.3812   26.2318  O.3 1 <0> -1.0332
  15   O3       17.8074    5.2978   30.6364  O.2 1 <0> -0.5698
  16   O4       18.9314   -0.7527   24.1606  O.2 1 <0> -1.0332
  17   O5       17.0510    2.0794   28.2137  O.3 1 <0> -0.5601
  18   O6       15.0870    3.7695   26.5833  O.3 1 <0> -0.6802
  19   O7       17.9091   -0.0135   26.3390  O.3 1 <0> -0.5513
  20   P1       19.0969   -0.9440   25.6653  P.3 1 <0>  1.3711
  21   H1       21.4965    1.9545   29.4587    H 1 <0>  0.1500
  22   H2       19.3285    1.9262   28.2461    H 1 <0>  0.1500
  23   H3       18.3352    4.4314   26.9068    H 1 <0>  0.0000
  24   H4       16.8727    5.2473   27.4619    H 1 <0>  0.0000
  25   H5       16.7099    3.6241   25.3324    H 1 <0>  0.0000
  26   H6       15.8549    1.3824   26.6895    H 1 <0>  0.0000
  27   H7       16.4764    3.7853   29.2480    H 1 <0>  0.0000
  28   H8       18.8490    1.8078   26.4511    H 1 <0>  0.0000
  29   H9       17.8303    1.5497   25.0110    H 1 <0>  0.0000
  30  H10       22.7462    3.0529   31.1927    H 1 <0>  0.3999
  31  H11       22.1486    4.3927   32.1469    H 1 <0>  0.3999
  32  H12       14.5520    3.3732   25.8917    H 1 <0>  0.3999
@<TRIPOS>BOND
    1     1     2  1
    2     1     3  1
    3     2    11  1
    4     3    10  1
    5     3    12  1
    6     4    10  1
    7     4    11  1
    8     4    15  1
    9     5     6  1
   10     5     8  1
   11     6     7  1
   12     6    18  1
   13     7     9  1
   14     7    17  1
   15     8    11  1
   16     8    17  1
   17     9    19  1
   18    13    20  1
   19    14    20  1
   20    16    20  1
   21    19    20  1
   22     1    21  1
   23     2    22  1
   24     5    23  1
   25     5    24  1
   26     6    25  1
   27     7    26  1
   28     8    27  1
   29     9    28  1
   30     9    29  1
   31    12    30  1
   32    12    31  1
   33    18    32  1

@<TRIPOS>MOLECULE
MOL
   32   33    0    0    0
SMALL
USER_CHARGES


@<TRIPOS>ATOM
   1   C1       20.7099    2.7176   29.6432  C.2 1 <0> -0.1356
   2   C2       19.5398    2.6931   29.0083  C.2 1 <0> -0.0410
   3   C3       20.8689    3.7565   30.6941  C.2 1 <0>  0.4856
   4   C4       18.7002    4.5561   30.3045  C.2 1 <0>  0.8408
   5   C5       17.3113    4.2716   27.2645  C.3 1 <0>  0.0000
   6   C6       16.4437    3.4368   26.3511  C.3 1 <0>  0.2800
   7   C7       16.7283    2.0138   26.8111  C.3 1 <0>  0.2800
   8   C8       17.2896    3.4739   28.5582  C.3 1 <0>  0.5801
   9   C9       17.9106    1.3823   26.0876  C.3 1 <0>  0.2800
  10   N1       19.9097    4.5986   30.9766  N.2 1 <0> -0.6611
  11   N2       18.5141    3.5783   29.2964 N.am 1 <0> -0.4690
  12   N3       22.0631    3.8157   31.3741 N.pl3 1 <0> -0.8501
  13   O1       18.7676   -2.3524   26.1510  O.3 1 <0> -1.0332
  14   O2       20.3972   -0.3812   26.2318  O.3 1 <0> -1.0332
  15   O3       17.8074    5.3583   30.5837  O.2 1 <0> -0.5698
  16   O4       18.9314   -0.7527   24.1606  O.2 1 <0> -1.0332
  17   O5       17.0606    2.1011   28.2103  O.3 1 <0> -0.5601
  18   O6       15.0708    3.7527   26.5716  O.3 1 <0> -0.6802
  19   O7       17.9091   -0.0135   26.3390  O.3 1 <0> -0.5513
  20   P1       19.0969   -0.9440   25.6653  P.3 1 <0>  1.3711
  21   H1       21.5157    2.0298   29.4244    H 1 <0>  0.1500
  22   H2       19.3394    1.9671   28.2282    H 1 <0>  0.1500
  23   H3       18.3156    4.4456   26.8624    H 1 <0>  0.0000
  24   H4       16.8504    5.2569   27.4171    H 1 <0>  0.0000
  25   H5       16.6858    3.6037   25.3109    H 1 <0>  0.0000
  26   H6       15.8593    1.3736   26.7044    H 1 <0>  0.0000
  27   H7       16.4792    3.8160   29.2256    H 1 <0>  0.0000
  28   H8       18.8490    1.8078   26.4511    H 1 <0>  0.0000
  29   H9       17.8303    1.5497   25.0110    H 1 <0>  0.0000
  30  H10       22.7687    3.1618   31.1343    H 1 <0>  0.3999
  31  H11       22.1667    4.5095   32.0746    H 1 <0>  0.3999
  32  H12       14.5342    3.3426   25.8893    H 1 <0>  0.3999
@<TRIPOS>BOND
    1     1     2  1
    2     1     3  1
    3     2    11  1
    4     3    10  1
    5     3    12  1
    6     4    10  1
    7     4    11  1
    8     4    15  1
    9     5     6  1
   10     5     8  1
   11     6     7  1
   12     6    18  1
   13     7     9  1
   14     7    17  1
   15     8    11  1
   16     8    17  1
   17     9    19  1
   18    13    20  1
   19    14    20  1
   20    16    20  1
   21    19    20  1
   22     1    21  1
   23     2    22  1
   24     5    23  1
   25     5    24  1
   26     6    25  1
   27     7    26  1
   28     8    27  1
   29     9    28  1
   30     9    29  1
   31    12    30  1
   32    12    31  1
   33    18    32  1

@<TRIPOS>MOLECULE
MOL
   32   33    0    0    0
SMALL
USER_CHARGES


@<TRIPOS>ATOM
   1   C1       20.7241    2.7888   29.6044  C.2 1 <0> -0.1356
   2   C2       19.5498    2.7460   28.9784  C.2 1 <0> -0.0410
   3   C3       20.8820    3.8431   30.6399  C.2 1 <0>  0.4856
   4   C4       18.7040    4.6195   30.2553  C.2 1 <0>  0.8408
   5   C5       17.2957    4.2823   27.2297  C.3 1 <0>  0.0000
   6   C6       16.4286    3.4281   26.3340  C.3 1 <0>  0.2800
   7   C7       16.7283    2.0138   26.8111  C.3 1 <0>  0.2800
   8   C8       17.2899    3.5021   28.5341  C.3 1 <0>  0.5801
   9   C9       17.9106    1.3823   26.0876  C.3 1 <0>  0.2800
  10   N1       19.9179    4.6810   30.9180  N.2 1 <0> -0.6611
  11   N2       18.5188    3.6266   29.2620 N.am 1 <0> -0.4690
  12   N3       22.0805    3.9213   31.3103 N.pl3 1 <0> -0.8501
  13   O1       18.7676   -2.3524   26.1510  O.3 1 <0> -1.0332
  14   O2       20.3972   -0.3812   26.2318  O.3 1 <0> -1.0332
  15   O3       17.8065    5.4179   30.5302  O.2 1 <0> -0.5698
  16   O4       18.9314   -0.7527   24.1606  O.2 1 <0> -1.0332
  17   O5       17.0698    2.1228   28.2065  O.3 1 <0> -0.5601
  18   O6       15.0547    3.7356   26.5602  O.3 1 <0> -0.6802
  19   O7       17.9091   -0.0135   26.3390  O.3 1 <0> -0.5513
  20   P1       19.0969   -0.9440   25.6653  P.3 1 <0>  1.3711
  21   H1       21.5340    2.1047   29.3890    H 1 <0>  0.1500
  22   H2       19.3498    2.0079   28.2096    H 1 <0>  0.1500
  23   H3       18.2956    4.4591   26.8179    H 1 <0>  0.0000
  24   H4       16.8277    5.2657   27.3723    H 1 <0>  0.0000
  25   H5       16.6618    3.5828   25.2899    H 1 <0>  0.0000
  26   H6       15.8639    1.3651   26.7194    H 1 <0>  0.0000
  27   H7       16.4815    3.8465   29.2027    H 1 <0>  0.0000
  28   H8       18.8490    1.8078   26.4511    H 1 <0>  0.0000
  29   H9       17.8303    1.5497   25.0110    H 1 <0>  0.0000
  30  H10       22.7898    3.2702   31.0742    H 1 <0>  0.3999
  31  H11       22.1834    4.6255   32.0005    H 1 <0>  0.3999
  32  H12       14.5166    3.3119   25.8874    H 1 <0>  0.3999
@<TRIPOS>BOND
    1     1     2  1
    2     1     3  1
    3     2    11  1
    4     3    10  1
    5     3    12  1
    6     4    10  1
    7     4    11  1
    8     4    15  1
    9     5     6  1
   10     5     8  1
   11     6     7  1
   12     6    18  1
   13     7     9  1
   14     7    17  1
   15     8    11  1
   16     8    17  1
   17     9    19  1
   18    13    20  1
   19    14    20  1
   20    16    20  1
   21    19    20  1
   22     1    21  1
   23     2    22  1
   24     5    23  1
   25     5    24  1
   26     6    25  1
   27     7    26  1
   28     8    27  1
   29     9    28  1
   30     9    29  1
   31    12    30  1
   32    12    31  1
   33    18    32  1

@<TRIPOS>MOLECULE
MOL
   32   33    0    0    0
SMALL
USER_CHARGES


@<TRIPOS>ATOM
   1   C1       20.7375    2.8596   29.5644  C.2 1 <0> -0.1356
   2   C2       19.5590    2.7986   28.9476  C.2 1 <0> -0.0410
   3   C3       20.8939    3.9291   30.5844  C.2 1 <0>  0.4856
   4   C4       18.7068    4.6822   30.2053  C.2 1 <0>  0.8408
   5   C5       17.2797    4.2924   27.1949  C.3 1 <0>  0.0000
   6   C6       16.4134    3.4189   26.3171  C.3 1 <0>  0.2800
   7   C7       16.7283    2.0138   26.8111  C.3 1 <0>  0.2800
   8   C8       17.2898    3.5299   28.5097  C.3 1 <0>  0.5801
   9   C9       17.9106    1.3823   26.0876  C.3 1 <0>  0.2800
  10   N1       19.9249    4.7627   30.8582  N.2 1 <0> -0.6611
  11   N2       18.5229    3.6744   29.2268 N.am 1 <0> -0.4690
  12   N3       22.0966    4.0263   31.2450 N.pl3 1 <0> -0.8501
  13   O1       18.7676   -2.3524   26.1510  O.3 1 <0> -1.0332
  14   O2       20.3972   -0.3812   26.2318  O.3 1 <0> -1.0332
  15   O3       17.8047    5.4769   30.4758  O.2 1 <0> -0.5698
  16   O4       18.9314   -0.7527   24.1606  O.2 1 <0> -1.0332
  17   O5       17.0789    2.1446   28.2024  O.3 1 <0> -0.5601
  18   O6       15.0386    3.7181   26.5491  O.3 1 <0> -0.6802
  19   O7       17.9091   -0.0135   26.3390  O.3 1 <0> -0.5513
  20   P1       19.0969   -0.9440   25.6653  P.3 1 <0>  1.3711
  21   H1       21.5515    2.1793   29.3524    H 1 <0>  0.1500
  22   H2       19.3597    2.0485   28.1904    H 1 <0>  0.1500
  23   H3       18.2752    4.4718   26.7734    H 1 <0>  0.0000
  24   H4       16.8046    5.2738   27.3275    H 1 <0>  0.0000
  25   H5       16.6378    3.5614   25.2694    H 1 <0>  0.0000
  26   H6       15.8687    1.3568   26.7345    H 1 <0>  0.0000
  27   H7       16.4834    3.8767   29.1795    H 1 <0>  0.0000
  28   H8       18.8490    1.8078   26.4511    H 1 <0>  0.0000
  29   H9       17.8303    1.5497   25.0110    H 1 <0>  0.0000
  30  H10       22.8095    3.3778   31.0125    H 1 <0>  0.3999
  31  H11       22.1985    4.7406   31.9249    H 1 <0>  0.3999
  32  H12       14.4993    3.2809   25.8861    H 1 <0>  0.3999
@<TRIPOS>BOND
    1     1     2  1
    2     1     3  1
    3     2    11  1
    4     3    10  1
    5     3    12  1
    6     4    10  1
    7     4    11  1
    8     4    15  1
    9     5     6  1
   10     5     8  1
   11     6     7  1
   12     6    18  1
   13     7     9  1
   14     7    17  1
   15     8    11  1
   16     8    17  1
   17     9    19  1
   18    13    20  1
   19    14    20  1
   20    16    20  1
   21    19    20  1
   22     1    21  1
   23     2    22  1
   24     5    23  1
   25     5    24  1
   26     6    25  1
   27     7    26  1
   28     8    27  1
   29     9    28  1
   30     9    29  1
   31    12    30  1
   32    12    31  1
   33    18    32  1

@<TRIPOS>MOLECULE
MOL
   32   33    0    0    0
SMALL
USER_CHARGES


@<TRIPOS>ATOM
   1   C1       20.7500    2.9299   29.5234  C.2 1 <0> -0.1356
   2   C2       19.5677    2.8508   28.9161  C.2 1 <0> -0.0410
   3   C3       20.9048    4.0144   30.5277  C.2 1 <0>  0.4856
   4   C4       18.7088    4.7442   30.1544  C.2 1 <0>  0.8408
   5   C5       17.2634    4.3018   27.1600  C.3 1 <0>  0.0000
   6   C6       16.3981    3.4094   26.3005  C.3 1 <0>  0.2800
   7   C7       16.7283    2.0138   26.8111  C.3 1 <0>  0.2800
   8   C8       17.2893    3.5574   28.4849  C.3 1 <0>  0.5801
   9   C9       17.9106    1.3823   26.0876  C.3 1 <0>  0.2800
  10   N1       19.9309    4.8437   30.7973  N.2 1 <0> -0.6611
  11   N2       18.5263    3.7218   29.1910 N.am 1 <0> -0.4690
  12   N3       22.1113    4.1305   31.1781 N.pl3 1 <0> -0.8501
  13   O1       18.7676   -2.3524   26.1510  O.3 1 <0> -1.0332
  14   O2       20.3972   -0.3812   26.2318  O.3 1 <0> -1.0332
  15   O3       17.8021    5.5351   30.4208  O.2 1 <0> -0.5698
  16   O4       18.9314   -0.7527   24.1606  O.2 1 <0> -1.0332
  17   O5       17.0878    2.1663   28.1979  O.3 1 <0> -0.5601
  18   O6       15.0226    3.7005   26.5385  O.3 1 <0> -0.6802
  19   O7       17.9091   -0.0135   26.3390  O.3 1 <0> -0.5513
  20   P1       19.0969   -0.9440   25.6653  P.3 1 <0>  1.3711
  21   H1       21.5681    2.2535   29.3147    H 1 <0>  0.1500
  22   H2       19.3692    2.0889   28.1706    H 1 <0>  0.1500
  23   H3       18.2543    4.4837   26.7289    H 1 <0>  0.0000
  24   H4       16.7811    5.2810   27.2828    H 1 <0>  0.0000
  25   H5       16.6138    3.5395   25.2493    H 1 <0>  0.0000
  26   H6       15.8737    1.3488   26.7496    H 1 <0>  0.0000
  27   H7       16.4849    3.9066   29.1558    H 1 <0>  0.0000
  28   H8       18.8490    1.8078   26.4511    H 1 <0>  0.0000
  29   H9       17.8303    1.5497   25.0110    H 1 <0>  0.0000
  30  H10       22.8280    3.4848   30.9492    H 1 <0>  0.3999
  31  H11       22.2122    4.8547   31.8475    H 1 <0>  0.3999
  32  H12       14.4822    3.2498   25.8854    H 1 <0>  0.3999
@<TRIPOS>BOND
    1     1     2  1
    2     1     3  1
    3     2    11  1
    4     3    10  1
    5     3    12  1
    6     4    10  1
    7     4    11  1
    8     4    15  1
    9     5     6  1
   10     5     8  1
   11     6     7  1
   12     6    18  1
   13     7     9  1
   14     7    17  1
   15     8    11  1
   16     8    17  1
   17     9    19  1
   18    13    20  1
   19    14    20  1
   20    16    20  1
   21    19    20  1
   22     1    21  1
   23     2    22  1
   24     5    23  1
   25     5    24  1
   26     6    25  1
   27     7    26  1
   28     8    27  1
   29     9    28  1
   30     9    29  1
   31    12    30  1
   32    12    31  1
   33    18    32  1

@<TRIPOS>MOLECULE
MOL
   32   33    0    0    0
SMALL
USER_CHARGES


@<TRIPOS>ATOM
   1   C1       20.7616    2.9997   29.4814  C.2 1 <0> -0.1356
   2   C2       19.5756    2.9027   28.8839  C.2 1 <0> -0.0410
   3   C3       20.9146    4.0990   30.4697  C.2 1 <0>  0.4856
   4   C4       18.7100    4.8056   30.1026  C.2 1 <0>  0.8408
   5   C5       17.2468    4.3107   27.1251  C.3 1 <0>  0.0000
   6   C6       16.3828    3.3996   26.2841  C.3 1 <0>  0.2800
   7   C7       16.7283    2.0138   26.8111  C.3 1 <0>  0.2800
   8   C8       17.2884    3.5846   28.4598  C.3 1 <0>  0.5801
   9   C9       17.9106    1.3823   26.0876  C.3 1 <0>  0.2800
  10   N1       19.9357    4.9238   30.7352  N.2 1 <0> -0.6611
  11   N2       18.5290    3.7687   29.1545 N.am 1 <0> -0.4690
  12   N3       22.1247    4.2339   31.1097 N.pl3 1 <0> -0.8501
  13   O1       18.7676   -2.3524   26.1510  O.3 1 <0> -1.0332
  14   O2       20.3972   -0.3812   26.2318  O.3 1 <0> -1.0332
  15   O3       17.7986    5.5925   30.3649  O.2 1 <0> -0.5698
  16   O4       18.9314   -0.7527   24.1606  O.2 1 <0> -1.0332
  17   O5       17.0965    2.1881   28.1930  O.3 1 <0> -0.5601
  18   O6       15.0067    3.6825   26.5281  O.3 1 <0> -0.6802
  19   O7       17.9091   -0.0135   26.3390  O.3 1 <0> -0.5513
  20   P1       19.0969   -0.9440   25.6653  P.3 1 <0>  1.3711
  21   H1       21.5837    2.3274   29.2759    H 1 <0>  0.1500
  22   H2       19.3782    2.1291   28.1501    H 1 <0>  0.1500
  23   H3       18.2331    4.4949   26.6844    H 1 <0>  0.0000
  24   H4       16.7573    5.2874   27.2382    H 1 <0>  0.0000
  25   H5       16.5899    3.5172   25.2297    H 1 <0>  0.0000
  26   H6       15.8789    1.3410   26.7649    H 1 <0>  0.0000
  27   H7       16.4859    3.9362   29.1317    H 1 <0>  0.0000
  28   H8       18.8490    1.8078   26.4511    H 1 <0>  0.0000
  29   H9       17.8303    1.5497   25.0110    H 1 <0>  0.0000
  30  H10       22.8450    3.5911   30.8844    H 1 <0>  0.3999
  31  H11       22.2243    4.9679   31.7685    H 1 <0>  0.3999
  32  H12       14.4654    3.2186   25.8851    H 1 <0>  0.3999
@<TRIPOS>BOND
    1     1     2  1
    2     1     3  1
    3     2    11  1
    4     3    10  1
    5     3    12  1
    6     4    10  1
    7     4    11  1
    8     4    15  1
    9     5     6  1
   10     5     8  1
   11     6     7  1
   12     6    18  1
   13     7     9  1
   14     7    17  1
   15     8    11  1
   16     8    17  1
   17     9    19  1
   18    13    20  1
   19    14    20  1
   20    16    20  1
   21    19    20  1
   22     1    21  1
   23     2    22  1
   24     5    23  1
   25     5    24  1
   26     6    25  1
   27     7    26  1
   28     8    27  1
   29     9    28  1
   30     9    29  1
   31    12    30  1
   32    12    31  1
   33    18    32  1

@<TRIPOS>MOLECULE
MOL
   32   33    0    0    0
SMALL
USER_CHARGES


@<TRIPOS>ATOM
   1   C1       20.7723    3.0691   29.4383  C.2 1 <0> -0.1356
   2   C2       19.5829    2.9542   28.8509  C.2 1 <0> -0.0410
   3   C3       20.9232    4.1830   30.4106  C.2 1 <0>  0.4856
   4   C4       18.7102    4.8663   30.0501  C.2 1 <0>  0.8408
   5   C5       17.2299    4.3189   27.0903  C.3 1 <0>  0.0000
   6   C6       16.3675    3.3894   26.2679  C.3 1 <0>  0.2800
   7   C7       16.7283    2.0138   26.8111  C.3 1 <0>  0.2800
   8   C8       17.2872    3.6114   28.4343  C.3 1 <0>  0.5801
   9   C9       17.9106    1.3823   26.0876  C.3 1 <0>  0.2800
  10   N1       19.9394    5.0031   30.6720  N.2 1 <0> -0.6611
  11   N2       18.5311    3.8151   29.1174 N.am 1 <0> -0.4690
  12   N3       22.1367    4.3364   31.0399 N.pl3 1 <0> -0.8501
  13   O1       18.7676   -2.3524   26.1510  O.3 1 <0> -1.0332
  14   O2       20.3972   -0.3812   26.2318  O.3 1 <0> -1.0332
  15   O3       17.7942    5.6491   30.3083  O.2 1 <0> -0.5698
  16   O4       18.9314   -0.7527   24.1606  O.2 1 <0> -1.0332
  17   O5       17.1049    2.2099   28.1878  O.3 1 <0> -0.5601
  18   O6       14.9909    3.6642   26.5182  O.3 1 <0> -0.6802
  19   O7       17.9091   -0.0135   26.3390  O.3 1 <0> -0.5513
  20   P1       19.0969   -0.9440   25.6653  P.3 1 <0>  1.3711
  21   H1       21.5985    2.4008   29.2359    H 1 <0>  0.1500
  22   H2       19.3867    2.1691   28.1291    H 1 <0>  0.1500
  23   H3       18.2114    4.5053   26.6399    H 1 <0>  0.0000
  24   H4       16.7330    5.2930   27.1937    H 1 <0>  0.0000
  25   H5       16.5660    3.4944   25.2106    H 1 <0>  0.0000
  26   H6       15.8842    1.3334   26.7802    H 1 <0>  0.0000
  27   H7       16.4866    3.9655   29.1072    H 1 <0>  0.0000
  28   H8       18.8490    1.8078   26.4511    H 1 <0>  0.0000
  29   H9       17.8303    1.5497   25.0110    H 1 <0>  0.0000
  30  H10       22.8608    3.6966   30.8180    H 1 <0>  0.3999
  31  H11       22.2349    5.0802   31.6879    H 1 <0>  0.3999
  32  H12       14.4489    3.1872   25.8855    H 1 <0>  0.3999
@<TRIPOS>BOND
    1     1     2  1
    2     1     3  1
    3     2    11  1
    4     3    10  1
    5     3    12  1
    6     4    10  1
    7     4    11  1
    8     4    15  1
    9     5     6  1
   10     5     8  1
   11     6     7  1
   12     6    18  1
   13     7     9  1
   14     7    17  1
   15     8    11  1
   16     8    17  1
   17     9    19  1
   18    13    20  1
   19    14    20  1
   20    16    20  1
   21    19    20  1
   22     1    21  1
   23     2    22  1
   24     5    23  1
   25     5    24  1
   26     6    25  1
   27     7    26  1
   28     8    27  1
   29     9    28  1
   30     9    29  1
   31    12    30  1
   32    12    31  1
   33    18    32  1

@<TRIPOS>MOLECULE
MOL
   32   33    0    0    0
SMALL
USER_CHARGES


@<TRIPOS>ATOM
   1   C1       20.7821    3.1379   29.3943  C.2 1 <0> -0.1356
   2   C2       19.5896    3.0053   28.8171  C.2 1 <0> -0.0410
   3   C3       20.9307    4.2661   30.3503  C.2 1 <0>  0.4856
   4   C4       18.7095    4.9262   29.9967  C.2 1 <0>  0.8408
   5   C5       17.2127    4.3266   27.0554  C.3 1 <0>  0.0000
   6   C6       16.3522    3.3789   26.2520  C.3 1 <0>  0.2800
   7   C7       16.7283    2.0138   26.8111  C.3 1 <0>  0.2800
   8   C8       17.2855    3.6378   28.4084  C.3 1 <0>  0.5801
   9   C9       17.9106    1.3823   26.0876  C.3 1 <0>  0.2800
  10   N1       19.9420    5.0817   30.6077  N.2 1 <0> -0.6611
  11   N2       18.5325    3.8611   29.0796 N.am 1 <0> -0.4690
  12   N3       22.1474    4.4381   30.9685 N.pl3 1 <0> -0.8501
  13   O1       18.7676   -2.3524   26.1510  O.3 1 <0> -1.0332
  14   O2       20.3972   -0.3812   26.2318  O.3 1 <0> -1.0332
  15   O3       17.7889    5.7049   30.2510  O.2 1 <0> -0.5698
  16   O4       18.9314   -0.7527   24.1606  O.2 1 <0> -1.0332
  17   O5       17.1131    2.2316   28.1823  O.3 1 <0> -0.5601
  18   O6       14.9751    3.6457   26.5085  O.3 1 <0> -0.6802
  19   O7       17.9091   -0.0135   26.3390  O.3 1 <0> -0.5513
  20   P1       19.0969   -0.9440   25.6653  P.3 1 <0>  1.3711
  21   H1       21.6124    2.4738   29.1949    H 1 <0>  0.1500
  22   H2       19.3947    2.2089   28.1075    H 1 <0>  0.1500
  23   H3       18.1893    4.5148   26.5955    H 1 <0>  0.0000
  24   H4       16.7084    5.2979   27.1493    H 1 <0>  0.0000
  25   H5       16.5422    3.4711   25.1919    H 1 <0>  0.0000
  26   H6       15.8897    1.3262   26.7955    H 1 <0>  0.0000
  27   H7       16.4868    3.9944   29.0824    H 1 <0>  0.0000
  28   H8       18.8490    1.8078   26.4511    H 1 <0>  0.0000
  29   H9       17.8303    1.5497   25.0110    H 1 <0>  0.0000
  30  H10       22.8751    3.8013   30.7501    H 1 <0>  0.3999
  31  H11       22.2440    5.1914   31.6058    H 1 <0>  0.3999
  32  H12       14.4326    3.1557   25.8863    H 1 <0>  0.3999
@<TRIPOS>BOND
    1     1     2  1
    2     1     3  1
    3     2    11  1
    4     3    10  1
    5     3    12  1
    6     4    10  1
    7     4    11  1
    8     4    15  1
    9     5     6  1
   10     5     8  1
   11     6     7  1
   12     6    18  1
   13     7     9  1
   14     7    17  1
   15     8    11  1
   16     8    17  1
   17     9    19  1
   18    13    20  1
   19    14    20  1
   20    16    20  1
   21    19    20  1
   22     1    21  1
   23     2    22  1
   24     5    23  1
   25     5    24  1
   26     6    25  1
   27     7    26  1
   28     8    27  1
   29     9    28  1
   30     9    29  1
   31    12    30  1
   32    12    31  1
   33    18    32  1

@<TRIPOS>MOLECULE
MOL
   32   33    0    0    0
SMALL
USER_CHARGES


@<TRIPOS>ATOM
   1   C1       20.7910    3.2063   29.3492  C.2 1 <0> -0.1356
   2   C2       19.5955    3.0560   28.7826  C.2 1 <0> -0.0410
   3   C3       20.9371    4.3485   30.2888  C.2 1 <0>  0.4856
   4   C4       18.7080    4.9854   29.9425  C.2 1 <0>  0.8408
   5   C5       17.1951    4.3336   27.0206  C.3 1 <0>  0.0000
   6   C6       16.3368    3.3681   26.2364  C.3 1 <0>  0.2800
   7   C7       16.7283    2.0138   26.8111  C.3 1 <0>  0.2800
   8   C8       17.2833    3.6639   28.3822  C.3 1 <0>  0.5801
   9   C9       17.9106    1.3823   26.0876  C.3 1 <0>  0.2800
  10   N1       19.9435    5.1593   30.5424  N.2 1 <0> -0.6611
  11   N2       18.5333    3.9065   29.0413 N.am 1 <0> -0.4690
  12   N3       22.1567    4.5389   30.8958 N.pl3 1 <0> -0.8501
  13   O1       18.7676   -2.3524   26.1510  O.3 1 <0> -1.0332
  14   O2       20.3972   -0.3812   26.2318  O.3 1 <0> -1.0332
  15   O3       17.7828    5.7599   30.1930  O.2 1 <0> -0.5698
  16   O4       18.9314   -0.7527   24.1606  O.2 1 <0> -1.0332
  17   O5       17.1212    2.2534   28.1763  O.3 1 <0> -0.5601
  18   O6       14.9594    3.6270   26.4993  O.3 1 <0> -0.6802
  19   O7       17.9091   -0.0135   26.3390  O.3 1 <0> -0.5513
  20   P1       19.0969   -0.9440   25.6653  P.3 1 <0>  1.3711
  21   H1       21.6254    2.5464   29.1528    H 1 <0>  0.1500
  22   H2       19.4022    2.2484   28.0852    H 1 <0>  0.1500
  23   H3       18.1668    4.5236   26.5510    H 1 <0>  0.0000
  24   H4       16.6835    5.3019   27.1050    H 1 <0>  0.0000
  25   H5       16.5184    3.4474   25.1738    H 1 <0>  0.0000
  26   H6       15.8954    1.3191   26.8109    H 1 <0>  0.0000
  27   H7       16.4866    4.0230   29.0571    H 1 <0>  0.0000
  28   H8       18.8490    1.8078   26.4511    H 1 <0>  0.0000
  29   H9       17.8303    1.5497   25.0110    H 1 <0>  0.0000
  30  H10       22.8881    3.9052   30.6806    H 1 <0>  0.3999
  31  H11       22.2516    5.3015   31.5220    H 1 <0>  0.3999
  32  H12       14.4165    3.1241   25.8877    H 1 <0>  0.3999
@<TRIPOS>BOND
    1     1     2  1
    2     1     3  1
    3     2    11  1
    4     3    10  1
    5     3    12  1
    6     4    10  1
    7     4    11  1
    8     4    15  1
    9     5     6  1
   10     5     8  1
   11     6     7  1
   12     6    18  1
   13     7     9  1
   14     7    17  1
   15     8    11  1
   16     8    17  1
   17     9    19  1
   18    13    20  1
   19    14    20  1
   20    16    20  1
   21    19    20  1
   22     1    21  1
   23     2    22  1
   24     5    23  1
   25     5    24  1
   26     6    25  1
   27     7    26  1
   28     8    27  1
   29     9    28  1
   30     9    29  1
   31    12    30  1
   32    12    31  1
   33    18    32  1

@<TRIPOS>MOLECULE
MOL
   32   33    0    0    0
SMALL
USER_CHARGES


@<TRIPOS>ATOM
   1   C1       20.7990    3.2741   29.3032  C.2 1 <0> -0.1356
   2   C2       19.6008    3.1063   28.7474  C.2 1 <0> -0.0410
   3   C3       20.9423    4.4301   30.2261  C.2 1 <0>  0.4856
   4   C4       18.7056    5.0439   29.8875  C.2 1 <0>  0.8408
   5   C5       17.1772    4.3400   26.9858  C.3 1 <0>  0.0000
   6   C6       16.3214    3.3569   26.2210  C.3 1 <0>  0.2800
   7   C7       16.7283    2.0138   26.8111  C.3 1 <0>  0.2800
   8   C8       17.2808    3.6896   28.3557  C.3 1 <0>  0.5801
   9   C9       17.9106    1.3823   26.0876  C.3 1 <0>  0.2800
  10   N1       19.9439    5.2361   30.4760  N.2 1 <0> -0.6611
  11   N2       18.5334    3.9514   29.0022 N.am 1 <0> -0.4690
  12   N3       22.1646    4.6388   30.8216 N.pl3 1 <0> -0.8501
  13   O1       18.7676   -2.3524   26.1510  O.3 1 <0> -1.0332
  14   O2       20.3972   -0.3812   26.2318  O.3 1 <0> -1.0332
  15   O3       17.7758    5.8140   30.1342  O.2 1 <0> -0.5698
  16   O4       18.9314   -0.7527   24.1606  O.2 1 <0> -1.0332
  17   O5       17.1289    2.2751   28.1701  O.3 1 <0> -0.5601
  18   O6       14.9439    3.6080   26.4904  O.3 1 <0> -0.6802
  19   O7       17.9091   -0.0135   26.3390  O.3 1 <0> -0.5513
  20   P1       19.0969   -0.9440   25.6653  P.3 1 <0>  1.3711
  21   H1       21.6375    2.6184   29.1096    H 1 <0>  0.1500
  22   H2       19.4092    2.2877   28.0624    H 1 <0>  0.1500
  23   H3       18.1439    4.5316   26.5066    H 1 <0>  0.0000
  24   H4       16.6582    5.3051   27.0609    H 1 <0>  0.0000
  25   H5       16.4947    3.4233   25.1561    H 1 <0>  0.0000
  26   H6       15.9012    1.3123   26.8264    H 1 <0>  0.0000
  27   H7       16.4860    4.0513   29.0314    H 1 <0>  0.0000
  28   H8       18.8490    1.8078   26.4511    H 1 <0>  0.0000
  29   H9       17.8303    1.5497   25.0110    H 1 <0>  0.0000
  30  H10       22.8998    4.0083   30.6097    H 1 <0>  0.3999
  31  H11       22.2577    5.4106   31.4368    H 1 <0>  0.3999
  32  H12       14.4008    3.0924   25.8897    H 1 <0>  0.3999
@<TRIPOS>BOND
    1     1     2  1
    2     1     3  1
    3     2    11  1
    4     3    10  1
    5     3    12  1
    6     4    10  1
    7     4    11  1
    8     4    15  1
    9     5     6  1
   10     5     8  1
   11     6     7  1
   12     6    18  1
   13     7     9  1
   14     7    17  1
   15     8    11  1
   16     8    17  1
   17     9    19  1
   18    13    20  1
   19    14    20  1
   20    16    20  1
   21    19    20  1
   22     1    21  1
   23     2    22  1
   24     5    23  1
   25     5    24  1
   26     6    25  1
   27     7    26  1
   28     8    27  1
   29     9    28  1
   30     9    29  1
   31    12    30  1
   32    12    31  1
   33    18    32  1

@<TRIPOS>MOLECULE
MOL
   32   33    0    0    0
SMALL
USER_CHARGES


@<TRIPOS>ATOM
   1   C1       20.8062    3.3413   29.2562  C.2 1 <0> -0.1356
   2   C2       19.6054    3.1561   28.7114  C.2 1 <0> -0.0410
   3   C3       20.9464    4.5109   30.1623  C.2 1 <0>  0.4856
   4   C4       18.7023    5.1016   29.8318  C.2 1 <0>  0.8408
   5   C5       17.1591    4.3458   26.9511  C.3 1 <0>  0.0000
   6   C6       16.3060    3.3453   26.2059  C.3 1 <0>  0.2800
   7   C7       16.7283    2.0138   26.8111  C.3 1 <0>  0.2800
   8   C8       17.2779    3.7149   28.3288  C.3 1 <0>  0.5801
   9   C9       17.9106    1.3823   26.0876  C.3 1 <0>  0.2800
  10   N1       19.9431    5.3119   30.4086  N.2 1 <0> -0.6611
  11   N2       18.5329    3.9958   28.9626 N.am 1 <0> -0.4690
  12   N3       22.1712    4.7377   30.7460 N.pl3 1 <0> -0.8501
  13   O1       18.7676   -2.3524   26.1510  O.3 1 <0> -1.0332
  14   O2       20.3972   -0.3812   26.2318  O.3 1 <0> -1.0332
  15   O3       17.7679    5.8673   30.0748  O.2 1 <0> -0.5698
  16   O4       18.9314   -0.7527   24.1606  O.2 1 <0> -1.0332
  17   O5       17.1365    2.2968   28.1635  O.3 1 <0> -0.5601
  18   O6       14.9284    3.5887   26.4819  O.3 1 <0> -0.6802
  19   O7       17.9091   -0.0135   26.3390  O.3 1 <0> -0.5513
  20   P1       19.0969   -0.9440   25.6653  P.3 1 <0>  1.3711
  21   H1       21.6486    2.6900   29.0654    H 1 <0>  0.1500
  22   H2       19.4157    2.3268   28.0390    H 1 <0>  0.1500
  23   H3       18.1206    4.5389   26.4623    H 1 <0>  0.0000
  24   H4       16.6325    5.3075   27.0169    H 1 <0>  0.0000
  25   H5       16.4711    3.3987   25.1390    H 1 <0>  0.0000
  26   H6       15.9072    1.3058   26.8419    H 1 <0>  0.0000
  27   H7       16.4850    4.0792   29.0054    H 1 <0>  0.0000
  28   H8       18.8490    1.8078   26.4511    H 1 <0>  0.0000
  29   H9       17.8303    1.5497   25.0110    H 1 <0>  0.0000
  30  H10       22.9100    4.1104   30.5373    H 1 <0>  0.3999
  31  H11       22.2623    5.5185   31.3500    H 1 <0>  0.3999
  32  H12       14.3853    3.0606   25.8922    H 1 <0>  0.3999
@<TRIPOS>BOND
    1     1     2  1
    2     1     3  1
    3     2    11  1
    4     3    10  1
    5     3    12  1
    6     4    10  1
    7     4    11  1
    8     4    15  1
    9     5     6  1
   10     5     8  1
   11     6     7  1
   12     6    18  1
   13     7     9  1
   14     7    17  1
   15     8    11  1
   16     8    17  1
   17     9    19  1
   18    13    20  1
   19    14    20  1
   20    16    20  1
   21    19    20  1
   22     1    21  1
   23     2    22  1
   24     5    23  1
   25     5    24  1
   26     6    25  1
   27     7    26  1
   28     8    27  1
   29     9    28  1
   30     9    29  1
   31    12    30  1
   32    12    31  1
   33    18    32  1

@<TRIPOS>MOLECULE
MOL
   32   33    0    0    0
SMALL
USER_CHARGES


@<TRIPOS>ATOM
   1   C1       20.8124    3.4079   29.2082  C.2 1 <0> -0.1356
   2   C2       19.6094    3.2054   28.6748  C.2 1 <0> -0.0410
   3   C3       20.9494    4.5908   30.0974  C.2 1 <0>  0.4856
   4   C4       18.6981    5.1584   29.7753  C.2 1 <0>  0.8408
   5   C5       17.1406    4.3509   26.9164  C.3 1 <0>  0.0000
   6   C6       16.2906    3.3335   26.1911  C.3 1 <0>  0.2800
   7   C7       16.7283    2.0138   26.8111  C.3 1 <0>  0.2800
   8   C8       17.2746    3.7398   28.3016  C.3 1 <0>  0.5801
   9   C9       17.9106    1.3823   26.0876  C.3 1 <0>  0.2800
  10   N1       19.9412    5.3868   30.3401  N.2 1 <0> -0.6611
  11   N2       18.5317    4.0396   28.9224 N.am 1 <0> -0.4690
  12   N3       22.1764    4.8356   30.6690 N.pl3 1 <0> -0.8501
  13   O1       18.7676   -2.3524   26.1510  O.3 1 <0> -1.0332
  14   O2       20.3972   -0.3812   26.2318  O.3 1 <0> -1.0332
  15   O3       17.7591    5.9197   30.0148  O.2 1 <0> -0.5698
  16   O4       18.9314   -0.7527   24.1606  O.2 1 <0> -1.0332
  17   O5       17.1438    2.3185   28.1565  O.3 1 <0> -0.5601
  18   O6       14.9130    3.5692   26.4738  O.3 1 <0> -0.6802
  19   O7       17.9091   -0.0135   26.3390  O.3 1 <0> -0.5513
  20   P1       19.0969   -0.9440   25.6653  P.3 1 <0>  1.3711
  21   H1       21.6589    2.7611   29.0201    H 1 <0>  0.1500
  22   H2       19.4218    2.3656   28.0150    H 1 <0>  0.1500
  23   H3       18.0970    4.5453   26.4181    H 1 <0>  0.0000
  24   H4       16.6066    5.3091   26.9730    H 1 <0>  0.0000
  25   H5       16.4476    3.3737   25.1223    H 1 <0>  0.0000
  26   H6       15.9134    1.2996   26.8574    H 1 <0>  0.0000
  27   H7       16.4835    4.1067   28.9790    H 1 <0>  0.0000
  28   H8       18.8490    1.8078   26.4511    H 1 <0>  0.0000
  29   H9       17.8303    1.5497   25.0110    H 1 <0>  0.0000
  30  H10       22.9189    4.2117   30.4634    H 1 <0>  0.3999
  31  H11       22.2653    5.6253   31.2617    H 1 <0>  0.3999
  32  H12       14.3701    3.0286   25.8952    H 1 <0>  0.3999
@<TRIPOS>BOND
    1     1     2  1
    2     1     3  1
    3     2    11  1
    4     3    10  1
    5     3    12  1
    6     4    10  1
    7     4    11  1
    8     4    15  1
    9     5     6  1
   10     5     8  1
   11     6     7  1
   12     6    18  1
   13     7     9  1
   14     7    17  1
   15     8    11  1
   16     8    17  1
   17     9    19  1
   18    13    20  1
   19    14    20  1
   20    16    20  1
   21    19    20  1
   22     1    21  1
   23     2    22  1
   24     5    23  1
   25     5    24  1
   26     6    25  1
   27     7    26  1
   28     8    27  1
   29     9    28  1
   30     9    29  1
   31    12    30  1
   32    12    31  1
   33    18    32  1

@<TRIPOS>MOLECULE
MOL
   32   33    0    0    0
SMALL
USER_CHARGES


@<TRIPOS>ATOM
   1   C1       20.8178    3.4739   29.1593  C.2 1 <0> -0.1356
   2   C2       19.6126    3.2543   28.6374  C.2 1 <0> -0.0410
   3   C3       20.9512    4.6699   30.0314  C.2 1 <0>  0.4856
   4   C4       18.6930    5.2145   29.7181  C.2 1 <0>  0.8408
   5   C5       17.1218    4.3554   26.8818  C.3 1 <0>  0.0000
   6   C6       16.2751    3.3213   26.1765  C.3 1 <0>  0.2800
   7   C7       16.7283    2.0138   26.8111  C.3 1 <0>  0.2800
   8   C8       17.2709    3.7643   28.2742  C.3 1 <0>  0.5801
   9   C9       17.9106    1.3823   26.0876  C.3 1 <0>  0.2800
  10   N1       19.9382    5.4608   30.2707  N.2 1 <0> -0.6611
  11   N2       18.5298    4.0829   28.8817 N.am 1 <0> -0.4690
  12   N3       22.1802    4.9325   30.5907 N.pl3 1 <0> -0.8501
  13   O1       18.7676   -2.3524   26.1510  O.3 1 <0> -1.0332
  14   O2       20.3972   -0.3812   26.2318  O.3 1 <0> -1.0332
  15   O3       17.7495    5.9712   29.9541  O.2 1 <0> -0.5698
  16   O4       18.9314   -0.7527   24.1606  O.2 1 <0> -1.0332
  17   O5       17.1509    2.3402   28.1492  O.3 1 <0> -0.5601
  18   O6       14.8977    3.5495   26.4661  O.3 1 <0> -0.6802
  19   O7       17.9091   -0.0135   26.3390  O.3 1 <0> -0.5513
  20   P1       19.0969   -0.9440   25.6653  P.3 1 <0>  1.3711
  21   H1       21.6682    2.8316   28.9738    H 1 <0>  0.1500
  22   H2       19.4273    2.4041   27.9905    H 1 <0>  0.1500
  23   H3       18.0730    4.5509   26.3739    H 1 <0>  0.0000
  24   H4       16.5802    5.3098   26.9294    H 1 <0>  0.0000
  25   H5       16.4241    3.3483   25.1062    H 1 <0>  0.0000
  26   H6       15.9198    1.2936   26.8730    H 1 <0>  0.0000
  27   H7       16.4816    4.1338   28.9522    H 1 <0>  0.0000
  28   H8       18.8490    1.8078   26.4511    H 1 <0>  0.0000
  29   H9       17.8303    1.5497   25.0110    H 1 <0>  0.0000
  30  H10       22.9264    4.3120   30.3881    H 1 <0>  0.3999
  31  H11       22.2668    5.7309   31.1720    H 1 <0>  0.3999
  32  H12       14.3552    2.9967   25.8988    H 1 <0>  0.3999
@<TRIPOS>BOND
    1     1     2  1
    2     1     3  1
    3     2    11  1
    4     3    10  1
    5     3    12  1
    6     4    10  1
    7     4    11  1
    8     4    15  1
    9     5     6  1
   10     5     8  1
   11     6     7  1
   12     6    18  1
   13     7     9  1
   14     7    17  1
   15     8    11  1
   16     8    17  1
   17     9    19  1
   18    13    20  1
   19    14    20  1
   20    16    20  1
   21    19    20  1
   22     1    21  1
   23     2    22  1
   24     5    23  1
   25     5    24  1
   26     6    25  1
   27     7    26  1
   28     8    27  1
   29     9    28  1
   30     9    29  1
   31    12    30  1
   32    12    31  1
   33    18    32  1

@<TRIPOS>MOLECULE
MOL
   32   33    0    0    0
SMALL
USER_CHARGES


@<TRIPOS>ATOM
   1   C1       20.8222    3.5393   29.1095  C.2 1 <0> -0.1356
   2   C2       19.6152    3.3027   28.5994  C.2 1 <0> -0.0410
   3   C3       20.9520    4.7481   29.9643  C.2 1 <0>  0.4856
   4   C4       18.6871    5.2698   29.6602  C.2 1 <0>  0.8408
   5   C5       17.1028    4.3594   26.8473  C.3 1 <0>  0.0000
   6   C6       16.2597    3.3088   26.1622  C.3 1 <0>  0.2800
   7   C7       16.7283    2.0138   26.8111  C.3 1 <0>  0.2800
   8   C8       17.2667    3.7885   28.2464  C.3 1 <0>  0.5801
   9   C9       17.9106    1.3823   26.0876  C.3 1 <0>  0.2800
  10   N1       19.9341    5.5338   30.2003  N.2 1 <0> -0.6611
  11   N2       18.5273    4.1256   28.8403 N.am 1 <0> -0.4690
  12   N3       22.1827    5.0284   30.5110 N.pl3 1 <0> -0.8501
  13   O1       18.7676   -2.3524   26.1510  O.3 1 <0> -1.0332
  14   O2       20.3972   -0.3812   26.2318  O.3 1 <0> -1.0332
  15   O3       17.7390    6.0218   29.8928  O.2 1 <0> -0.5698
  16   O4       18.9314   -0.7527   24.1606  O.2 1 <0> -1.0332
  17   O5       17.1578    2.3618   28.1415  O.3 1 <0> -0.5601
  18   O6       14.8825    3.5295   26.4587  O.3 1 <0> -0.6802
  19   O7       17.9091   -0.0135   26.3390  O.3 1 <0> -0.5513
  20   P1       19.0969   -0.9440   25.6653  P.3 1 <0>  1.3711
  21   H1       21.6766    2.9016   28.9264    H 1 <0>  0.1500
  22   H2       19.4324    2.4423   27.9654    H 1 <0>  0.1500
  23   H3       18.0486    4.5557   26.3299    H 1 <0>  0.0000
  24   H4       16.5536    5.3098   26.8859    H 1 <0>  0.0000
  25   H5       16.4008    3.3225   25.0906    H 1 <0>  0.0000
  26   H6       15.9263    1.2878   26.8887    H 1 <0>  0.0000
  27   H7       16.4794    4.1606   28.9251    H 1 <0>  0.0000
  28   H8       18.8490    1.8078   26.4511    H 1 <0>  0.0000
  29   H9       17.8303    1.5497   25.0110    H 1 <0>  0.0000
  30  H10       22.9326    4.4114   30.3115    H 1 <0>  0.3999
  31  H11       22.2668    5.8353   31.0809    H 1 <0>  0.3999
  32  H12       14.3406    2.9646   25.9030    H 1 <0>  0.3999
@<TRIPOS>BOND
    1     1     2  1
    2     1     3  1
    3     2    11  1
    4     3    10  1
    5     3    12  1
    6     4    10  1
    7     4    11  1
    8     4    15  1
    9     5     6  1
   10     5     8  1
   11     6     7  1
   12     6    18  1
   13     7     9  1
   14     7    17  1
   15     8    11  1
   16     8    17  1
   17     9    19  1
   18    13    20  1
   19    14    20  1
   20    16    20  1
   21    19    20  1
   22     1    21  1
   23     2    22  1
   24     5    23  1
   25     5    24  1
   26     6    25  1
   27     7    26  1
   28     8    27  1
   29     9    28  1
   30     9    29  1
   31    12    30  1
   32    12    31  1
   33    18    32  1

@<TRIPOS>MOLECULE
MOL
   32   33    0    0    0
SMALL
USER_CHARGES


@<TRIPOS>ATOM
   1   C1       20.8257    3.6041   29.0587  C.2 1 <0> -0.1356
   2   C2       19.6171    3.3507   28.5607  C.2 1 <0> -0.0410
   3   C3       20.9515    4.8254   29.8962  C.2 1 <0>  0.4856
   4   C4       18.6803    5.3242   29.6015  C.2 1 <0>  0.8408
   5   C5       17.0835    4.3626   26.8128  C.3 1 <0>  0.0000
   6   C6       16.2443    3.2959   26.1482  C.3 1 <0>  0.2800
   7   C7       16.7283    2.0138   26.8111  C.3 1 <0>  0.2800
   8   C8       17.2622    3.8122   28.2183  C.3 1 <0>  0.5801
   9   C9       17.9106    1.3823   26.0876  C.3 1 <0>  0.2800
  10   N1       19.9289    5.6058   30.1289  N.2 1 <0> -0.6611
  11   N2       18.5242    4.1677   28.7984 N.am 1 <0> -0.4690
  12   N3       22.1838    5.1232   30.4301 N.pl3 1 <0> -0.8501
  13   O1       18.7676   -2.3524   26.1510  O.3 1 <0> -1.0332
  14   O2       20.3972   -0.3812   26.2318  O.3 1 <0> -1.0332
  15   O3       17.7276    6.0714   29.8309  O.2 1 <0> -0.5698
  16   O4       18.9314   -0.7527   24.1606  O.2 1 <0> -1.0332
  17   O5       17.1644    2.3834   28.1336  O.3 1 <0> -0.5601
  18   O6       14.8675    3.5093   26.4517  O.3 1 <0> -0.6802
  19   O7       17.9091   -0.0135   26.3390  O.3 1 <0> -0.5513
  20   P1       19.0969   -0.9440   25.6653  P.3 1 <0>  1.3711
  21   H1       21.6841    2.9710   28.8781    H 1 <0>  0.1500
  22   H2       19.4369    2.4802   27.9398    H 1 <0>  0.1500
  23   H3       18.0239    4.5598   26.2860    H 1 <0>  0.0000
  24   H4       16.5267    5.3090   26.8426    H 1 <0>  0.0000
  25   H5       16.3775    3.2963   25.0755    H 1 <0>  0.0000
  26   H6       15.9329    1.2824   26.9043    H 1 <0>  0.0000
  27   H7       16.4767    4.1870   28.8977    H 1 <0>  0.0000
  28   H8       18.8490    1.8078   26.4511    H 1 <0>  0.0000
  29   H9       17.8303    1.5497   25.0110    H 1 <0>  0.0000
  30  H10       22.9373    4.5097   30.2334    H 1 <0>  0.3999
  31  H11       22.2652    5.9384   30.9883    H 1 <0>  0.3999
  32  H12       14.3263    2.9325   25.9076    H 1 <0>  0.3999
@<TRIPOS>BOND
    1     1     2  1
    2     1     3  1
    3     2    11  1
    4     3    10  1
    5     3    12  1
    6     4    10  1
    7     4    11  1
    8     4    15  1
    9     5     6  1
   10     5     8  1
   11     6     7  1
   12     6    18  1
   13     7     9  1
   14     7    17  1
   15     8    11  1
   16     8    17  1
   17     9    19  1
   18    13    20  1
   19    14    20  1
   20    16    20  1
   21    19    20  1
   22     1    21  1
   23     2    22  1
   24     5    23  1
   25     5    24  1
   26     6    25  1
   27     7    26  1
   28     8    27  1
   29     9    28  1
   30     9    29  1
   31    12    30  1
   32    12    31  1
   33    18    32  1

@<TRIPOS>MOLECULE
MOL
   32   33    0    0    0
SMALL
USER_CHARGES


@<TRIPOS>ATOM
   1   C1       20.8283    3.6682   29.0071  C.2 1 <0> -0.1356
   2   C2       19.6184    3.3980   28.5214  C.2 1 <0> -0.0410
   3   C3       20.9500    4.9017   29.8270  C.2 1 <0>  0.4856
   4   C4       18.6726    5.3777   29.5422  C.2 1 <0>  0.8408
   5   C5       17.0639    4.3653   26.7785  C.3 1 <0>  0.0000
   6   C6       16.2288    3.2828   26.1345  C.3 1 <0>  0.2800
   7   C7       16.7283    2.0138   26.8111  C.3 1 <0>  0.2800
   8   C8       17.2573    3.8354   28.1899  C.3 1 <0>  0.5801
   9   C9       17.9106    1.3823   26.0876  C.3 1 <0>  0.2800
  10   N1       19.9226    5.6767   30.0566  N.2 1 <0> -0.6611
  11   N2       18.5204    4.2092   28.7560 N.am 1 <0> -0.4690
  12   N3       22.1835    5.2169   30.3478 N.pl3 1 <0> -0.8501
  13   O1       18.7676   -2.3524   26.1510  O.3 1 <0> -1.0332
  14   O2       20.3972   -0.3812   26.2318  O.3 1 <0> -1.0332
  15   O3       17.7154    6.1202   29.7684  O.2 1 <0> -0.5698
  16   O4       18.9314   -0.7527   24.1606  O.2 1 <0> -1.0332
  17   O5       17.1708    2.4049   28.1252  O.3 1 <0> -0.5601
  18   O6       14.8525    3.4889   26.4451  O.3 1 <0> -0.6802
  19   O7       17.9091   -0.0135   26.3390  O.3 1 <0> -0.5513
  20   P1       19.0969   -0.9440   25.6653  P.3 1 <0>  1.3711
  21   H1       21.6907    3.0398   28.8288    H 1 <0>  0.1500
  22   H2       19.4410    2.5178   27.9136    H 1 <0>  0.1500
  23   H3       17.9988    4.5630   26.2422    H 1 <0>  0.0000
  24   H4       16.4994    5.3073   26.7995    H 1 <0>  0.0000
  25   H5       16.3544    3.2696   25.0609    H 1 <0>  0.0000
  26   H6       15.9397    1.2772   26.9200    H 1 <0>  0.0000
  27   H7       16.4735    4.2130   28.8699    H 1 <0>  0.0000
  28   H8       18.8490    1.8078   26.4511    H 1 <0>  0.0000
  29   H9       17.8303    1.5497   25.0110    H 1 <0>  0.0000
  30  H10       22.9407    4.6071   30.1540    H 1 <0>  0.3999
  31  H11       22.2621    6.0402   30.8944    H 1 <0>  0.3999
  32  H12       14.3123    2.9003   25.9128    H 1 <0>  0.3999
@<TRIPOS>BOND
    1     1     2  1
    2     1     3  1
    3     2    11  1
    4     3    10  1
    5     3    12  1
    6     4    10  1
    7     4    11  1
    8     4    15  1
    9     5     6  1
   10     5     8  1
   11     6     7  1
   12     6    18  1
   13     7     9  1
   14     7    17  1
   15     8    11  1
   16     8    17  1
   17     9    19  1
   18    13    20  1
   19    14    20  1
   20    16    20  1
   21    19    20  1
   22     1    21  1
   23     2    22  1
   24     5    23  1
   25     5    24  1
   26     6    25  1
   27     7    26  1
   28     8    27  1
   29     9    28  1
   30     9    29  1
   31    12    30  1
   32    12    31  1
   33    18    32  1

@<TRIPOS>MOLECULE
MOL
   32   33    0    0    0
SMALL
USER_CHARGES


@<TRIPOS>ATOM
   1   C1       20.8301    3.7316   28.9546  C.2 1 <0> -0.1356
   2   C2       19.6189    3.4449   28.4814  C.2 1 <0> -0.0410
   3   C3       20.9473    4.9771   29.7569  C.2 1 <0>  0.4856
   4   C4       18.6640    5.4304   29.4822  C.2 1 <0>  0.8408
   5   C5       17.0440    4.3673   26.7443  C.3 1 <0>  0.0000
   6   C6       16.2134    3.2693   26.1210  C.3 1 <0>  0.2800
   7   C7       16.7283    2.0138   26.8111  C.3 1 <0>  0.2800
   8   C8       17.2520    3.8583   28.1613  C.3 1 <0>  0.5801
   9   C9       17.9106    1.3823   26.0876  C.3 1 <0>  0.2800
  10   N1       19.9152    5.7467   29.9835  N.2 1 <0> -0.6611
  11   N2       18.5159    4.2501   28.7130 N.am 1 <0> -0.4690
  12   N3       22.1819    5.3095   30.2644 N.pl3 1 <0> -0.8501
  13   O1       18.7676   -2.3524   26.1510  O.3 1 <0> -1.0332
  14   O2       20.3972   -0.3812   26.2318  O.3 1 <0> -1.0332
  15   O3       17.7023    6.1679   29.7053  O.2 1 <0> -0.5698
  16   O4       18.9314   -0.7527   24.1606  O.2 1 <0> -1.0332
  17   O5       17.1769    2.4263   28.1166  O.3 1 <0> -0.5601
  18   O6       14.8377    3.4683   26.4389  O.3 1 <0> -0.6802
  19   O7       17.9091   -0.0135   26.3390  O.3 1 <0> -0.5513
  20   P1       19.0969   -0.9440   25.6653  P.3 1 <0>  1.3711
  21   H1       21.6963    3.1079   28.7785    H 1 <0>  0.1500
  22   H2       19.4445    2.5550   27.8868    H 1 <0>  0.1500
  23   H3       17.9734    4.5654   26.1985    H 1 <0>  0.0000
  24   H4       16.4719    5.3049   26.7567    H 1 <0>  0.0000
  25   H5       16.3314    3.2426   25.0469    H 1 <0>  0.0000
  26   H6       15.9467    1.2722   26.9357    H 1 <0>  0.0000
  27   H7       16.4700    4.2386   28.8418    H 1 <0>  0.0000
  28   H8       18.8490    1.8078   26.4511    H 1 <0>  0.0000
  29   H9       17.8303    1.5497   25.0110    H 1 <0>  0.0000
  30  H10       22.9427    4.7033   30.0732    H 1 <0>  0.3999
  31  H11       22.2576    6.1408   30.7991    H 1 <0>  0.3999
  32  H12       14.2986    2.8681   25.9186    H 1 <0>  0.3999
@<TRIPOS>BOND
    1     1     2  1
    2     1     3  1
    3     2    11  1
    4     3    10  1
    5     3    12  1
    6     4    10  1
    7     4    11  1
    8     4    15  1
    9     5     6  1
   10     5     8  1
   11     6     7  1
   12     6    18  1
   13     7     9  1
   14     7    17  1
   15     8    11  1
   16     8    17  1
   17     9    19  1
   18    13    20  1
   19    14    20  1
   20    16    20  1
   21    19    20  1
   22     1    21  1
   23     2    22  1
   24     5    23  1
   25     5    24  1
   26     6    25  1
   27     7    26  1
   28     8    27  1
   29     9    28  1
   30     9    29  1
   31    12    30  1
   32    12    31  1
   33    18    32  1

@<TRIPOS>MOLECULE
MOL
   32   33    0    0    0
SMALL
USER_CHARGES


@<TRIPOS>ATOM
   1   C1       20.8309    3.7943   28.9012  C.2 1 <0> -0.1356
   2   C2       19.6188    3.4912   28.4408  C.2 1 <0> -0.0410
   3   C3       20.9435    5.0515   29.6857  C.2 1 <0>  0.4856
   4   C4       18.6546    5.4822   29.4216  C.2 1 <0>  0.8408
   5   C5       17.0239    4.3687   26.7102  C.3 1 <0>  0.0000
   6   C6       16.1980    3.2555   26.1079  C.3 1 <0>  0.2800
   7   C7       16.7283    2.0138   26.8111  C.3 1 <0>  0.2800
   8   C8       17.2462    3.8807   28.1324  C.3 1 <0>  0.5801
   9   C9       17.9106    1.3823   26.0876  C.3 1 <0>  0.2800
  10   N1       19.9066    5.8155   29.9094  N.2 1 <0> -0.6611
  11   N2       18.5108    4.2904   28.6695 N.am 1 <0> -0.4690
  12   N3       22.1788    5.4009   30.1796 N.pl3 1 <0> -0.8501
  13   O1       18.7676   -2.3524   26.1510  O.3 1 <0> -1.0332
  14   O2       20.3972   -0.3812   26.2318  O.3 1 <0> -1.0332
  15   O3       17.6884    6.2147   29.6418  O.2 1 <0> -0.5698
  16   O4       18.9314   -0.7527   24.1606  O.2 1 <0> -1.0332
  17   O5       17.1828    2.4477   28.1076  O.3 1 <0> -0.5601
  18   O6       14.8230    3.4475   26.4331  O.3 1 <0> -0.6802
  19   O7       17.9091   -0.0135   26.3390  O.3 1 <0> -0.5513
  20   P1       19.0969   -0.9440   25.6653  P.3 1 <0>  1.3711
  21   H1       21.7010    3.1754   28.7273    H 1 <0>  0.1500
  22   H2       19.4476    2.5919   27.8596    H 1 <0>  0.1500
  23   H3       17.9476    4.5670   26.1550    H 1 <0>  0.0000
  24   H4       16.4441    5.3016   26.7141    H 1 <0>  0.0000
  25   H5       16.3085    3.2153   25.0334    H 1 <0>  0.0000
  26   H6       15.9538    1.2676   26.9514    H 1 <0>  0.0000
  27   H7       16.4660    4.2637   28.8133    H 1 <0>  0.0000
  28   H8       18.8490    1.8078   26.4511    H 1 <0>  0.0000
  29   H9       17.8303    1.5497   25.0110    H 1 <0>  0.0000
  30  H10       22.9433    4.7985   29.9912    H 1 <0>  0.3999
  31  H11       22.2514    6.2400   30.7026    H 1 <0>  0.3999
  32  H12       14.2853    2.8358   25.9248    H 1 <0>  0.3999
@<TRIPOS>BOND
    1     1     2  1
    2     1     3  1
    3     2    11  1
    4     3    10  1
    5     3    12  1
    6     4    10  1
    7     4    11  1
    8     4    15  1
    9     5     6  1
   10     5     8  1
   11     6     7  1
   12     6    18  1
   13     7     9  1
   14     7    17  1
   15     8    11  1
   16     8    17  1
   17     9    19  1
   18    13    20  1
   19    14    20  1
   20    16    20  1
   21    19    20  1
   22     1    21  1
   23     2    22  1
   24     5    23  1
   25     5    24  1
   26     6    25  1
   27     7    26  1
   28     8    27  1
   29     9    28  1
   30     9    29  1
   31    12    30  1
   32    12    31  1
   33    18    32  1

@<TRIPOS>MOLECULE
MOL
   32   33    0    0    0
SMALL
USER_CHARGES


@<TRIPOS>ATOM
   1   C1       20.8308    3.8562   28.8470  C.2 1 <0> -0.1356
   2   C2       19.6180    3.5370   28.3996  C.2 1 <0> -0.0410
   3   C3       20.9385    5.1249   29.6136  C.2 1 <0>  0.4856
   4   C4       18.6443    5.5331   29.3604  C.2 1 <0>  0.8408
   5   C5       17.0035    4.3695   26.6762  C.3 1 <0>  0.0000
   6   C6       16.1827    3.2415   26.0951  C.3 1 <0>  0.2800
   7   C7       16.7283    2.0138   26.8111  C.3 1 <0>  0.2800
   8   C8       17.2401    3.9027   28.1032  C.3 1 <0>  0.5801
   9   C9       17.9106    1.3823   26.0876  C.3 1 <0>  0.2800
  10   N1       19.8970    5.8833   29.8345  N.2 1 <0> -0.6611
  11   N2       18.5051    4.3300   28.6255 N.am 1 <0> -0.4690
  12   N3       22.1745    5.4911   30.0937 N.pl3 1 <0> -0.8501
  13   O1       18.7676   -2.3524   26.1510  O.3 1 <0> -1.0332
  14   O2       20.3972   -0.3812   26.2318  O.3 1 <0> -1.0332
  15   O3       17.6737    6.2605   29.5776  O.2 1 <0> -0.5698
  16   O4       18.9314   -0.7527   24.1606  O.2 1 <0> -1.0332
  17   O5       17.1885    2.4690   28.0982  O.3 1 <0> -0.5601
  18   O6       14.8085    3.4265   26.4276  O.3 1 <0> -0.6802
  19   O7       17.9091   -0.0135   26.3390  O.3 1 <0> -0.5513
  20   P1       19.0969   -0.9440   25.6653  P.3 1 <0>  1.3711
  21   H1       21.7048    3.2423   28.6751    H 1 <0>  0.1500
  22   H2       19.4501    2.6285   27.8318    H 1 <0>  0.1500
  23   H3       17.9215    4.5678   26.1117    H 1 <0>  0.0000
  24   H4       16.4160    5.2975   26.6717    H 1 <0>  0.0000
  25   H5       16.2858    3.1875   25.0204    H 1 <0>  0.0000
  26   H6       15.9611    1.2632   26.9671    H 1 <0>  0.0000
  27   H7       16.4617    4.2885   28.7846    H 1 <0>  0.0000
  28   H8       18.8490    1.8078   26.4511    H 1 <0>  0.0000
  29   H9       17.8303    1.5497   25.0110    H 1 <0>  0.0000
  30  H10       22.9426    4.8925   29.9078    H 1 <0>  0.3999
  31  H11       22.2438    6.3378   30.6047    H 1 <0>  0.3999
  32  H12       14.2722    2.8036   25.9317    H 1 <0>  0.3999
@<TRIPOS>BOND
    1     1     2  1
    2     1     3  1
    3     2    11  1
    4     3    10  1
    5     3    12  1
    6     4    10  1
    7     4    11  1
    8     4    15  1
    9     5     6  1
   10     5     8  1
   11     6     7  1
   12     6    18  1
   13     7     9  1
   14     7    17  1
   15     8    11  1
   16     8    17  1
   17     9    19  1
   18    13    20  1
   19    14    20  1
   20    16    20  1
   21    19    20  1
   22     1    21  1
   23     2    22  1
   24     5    23  1
   25     5    24  1
   26     6    25  1
   27     7    26  1
   28     8    27  1
   29     9    28  1
   30     9    29  1
   31    12    30  1
   32    12    31  1
   33    18    32  1

@<TRIPOS>MOLECULE
MOL
   32   33    0    0    0
SMALL
USER_CHARGES


@<TRIPOS>ATOM
   1   C1       20.8298    3.9174   28.7919  C.2 1 <0> -0.1356
   2   C2       19.6166    3.5822   28.3577  C.2 1 <0> -0.0410
   3   C3       20.9325    5.1972   29.5405  C.2 1 <0>  0.4856
   4   C4       18.6332    5.5830   29.2986  C.2 1 <0>  0.8408
   5   C5       16.9829    4.3696   26.6423  C.3 1 <0>  0.0000
   6   C6       16.1673    3.2271   26.0825  C.3 1 <0>  0.2800
   7   C7       16.7283    2.0138   26.8111  C.3 1 <0>  0.2800
   8   C8       17.2336    3.9242   28.0738  C.3 1 <0>  0.5801
   9   C9       17.9106    1.3823   26.0876  C.3 1 <0>  0.2800
  10   N1       19.8862    5.9500   29.7587  N.2 1 <0> -0.6611
  11   N2       18.4987    4.3690   28.5810 N.am 1 <0> -0.4690
  12   N3       22.1687    5.5801   30.0066 N.pl3 1 <0> -0.8501
  13   O1       18.7676   -2.3524   26.1510  O.3 1 <0> -1.0332
  14   O2       20.3972   -0.3812   26.2318  O.3 1 <0> -1.0332
  15   O3       17.6580    6.3054   29.5130  O.2 1 <0> -0.5698
  16   O4       18.9314   -0.7527   24.1606  O.2 1 <0> -1.0332
  17   O5       17.1939    2.4902   28.0886  O.3 1 <0> -0.5601
  18   O6       14.7941    3.4053   26.4226  O.3 1 <0> -0.6802
  19   O7       17.9091   -0.0135   26.3390  O.3 1 <0> -0.5513
  20   P1       19.0969   -0.9440   25.6653  P.3 1 <0>  1.3711
  21   H1       21.7076    3.3084   28.6220    H 1 <0>  0.1500
  22   H2       19.4522    2.6647   27.8036    H 1 <0>  0.1500
  23   H3       17.8951    4.5679   26.0685    H 1 <0>  0.0000
  24   H4       16.3876    5.2926   26.6296    H 1 <0>  0.0000
  25   H5       16.2631    3.1594   25.0080    H 1 <0>  0.0000
  26   H6       15.9685    1.2591   26.9828    H 1 <0>  0.0000
  27   H7       16.4569    4.3128   28.7556    H 1 <0>  0.0000
  28   H8       18.8490    1.8078   26.4511    H 1 <0>  0.0000
  29   H9       17.8303    1.5497   25.0110    H 1 <0>  0.0000
  30  H10       22.9404    4.9854   29.8233    H 1 <0>  0.3999
  31  H11       22.2346    6.4342   30.5056    H 1 <0>  0.3999
  32  H12       14.2594    2.7713   25.9390    H 1 <0>  0.3999
@<TRIPOS>BOND
    1     1     2  1
    2     1     3  1
    3     2    11  1
    4     3    10  1
    5     3    12  1
    6     4    10  1
    7     4    11  1
    8     4    15  1
    9     5     6  1
   10     5     8  1
   11     6     7  1
   12     6    18  1
   13     7     9  1
   14     7    17  1
   15     8    11  1
   16     8    17  1
   17     9    19  1
   18    13    20  1
   19    14    20  1
   20    16    20  1
   21    19    20  1
   22     1    21  1
   23     2    22  1
   24     5    23  1
   25     5    24  1
   26     6    25  1
   27     7    26  1
   28     8    27  1
   29     9    28  1
   30     9    29  1
   31    12    30  1
   32    12    31  1
   33    18    32  1

@<TRIPOS>MOLECULE
MOL
   32   33    0    0    0
SMALL
USER_CHARGES


@<TRIPOS>ATOM
   1   C1       20.8279    3.9779   28.7360  C.2 1 <0> -0.1356
   2   C2       19.6144    3.6268   28.3153  C.2 1 <0> -0.0410
   3   C3       20.9253    5.2685   29.4665  C.2 1 <0>  0.4856
   4   C4       18.6211    5.6321   29.2361  C.2 1 <0>  0.8408
   5   C5       16.9620    4.3691   26.6087  C.3 1 <0>  0.0000
   6   C6       16.1520    3.2124   26.0703  C.3 1 <0>  0.2800
   7   C7       16.7283    2.0138   26.8111  C.3 1 <0>  0.2800
   8   C8       17.2267    3.9453   28.0441  C.3 1 <0>  0.5801
   9   C9       17.9106    1.3823   26.0876  C.3 1 <0>  0.2800
  10   N1       19.8744    6.0155   29.6821  N.2 1 <0> -0.6611
  11   N2       18.4916    4.4073   28.5361 N.am 1 <0> -0.4690
  12   N3       22.1616    5.6679   29.9184 N.pl3 1 <0> -0.8501
  13   O1       18.7676   -2.3524   26.1510  O.3 1 <0> -1.0332
  14   O2       20.3972   -0.3812   26.2318  O.3 1 <0> -1.0332
  15   O3       17.6416    6.3492   29.4479  O.2 1 <0> -0.5698
  16   O4       18.9314   -0.7527   24.1606  O.2 1 <0> -1.0332
  17   O5       17.1991    2.5113   28.0786  O.3 1 <0> -0.5601
  18   O6       14.7798    3.3839   26.4179  O.3 1 <0> -0.6802
  19   O7       17.9091   -0.0135   26.3390  O.3 1 <0> -0.5513
  20   P1       19.0969   -0.9440   25.6653  P.3 1 <0>  1.3711
  21   H1       21.7095    3.3739   28.5679    H 1 <0>  0.1500
  22   H2       19.4537    2.7006   27.7748    H 1 <0>  0.1500
  23   H3       17.8684    4.5671   26.0256    H 1 <0>  0.0000
  24   H4       16.3590    5.2870   26.5878    H 1 <0>  0.0000
  25   H5       16.2407    3.1309   24.9961    H 1 <0>  0.0000
  26   H6       15.9761    1.2553   26.9985    H 1 <0>  0.0000
  27   H7       16.4517    4.3366   28.7262    H 1 <0>  0.0000
  28   H8       18.8490    1.8078   26.4511    H 1 <0>  0.0000
  29   H9       17.8303    1.5497   25.0110    H 1 <0>  0.0000
  30  H10       22.9369    5.0771   29.7374    H 1 <0>  0.3999
  31  H11       22.2240    6.5292   30.4053    H 1 <0>  0.3999
  32  H12       14.2470    2.7390   25.9469    H 1 <0>  0.3999
@<TRIPOS>BOND
    1     1     2  1
    2     1     3  1
    3     2    11  1
    4     3    10  1
    5     3    12  1
    6     4    10  1
    7     4    11  1
    8     4    15  1
    9     5     6  1
   10     5     8  1
   11     6     7  1
   12     6    18  1
   13     7     9  1
   14     7    17  1
   15     8    11  1
   16     8    17  1
   17     9    19  1
   18    13    20  1
   19    14    20  1
   20    16    20  1
   21    19    20  1
   22     1    21  1
   23     2    22  1
   24     5    23  1
   25     5    24  1
   26     6    25  1
   27     7    26  1
   28     8    27  1
   29     9    28  1
   30     9    29  1
   31    12    30  1
   32    12    31  1
   33    18    32  1

@<TRIPOS>MOLECULE
MOL
   32   33    0    0    0
SMALL
USER_CHARGES


@<TRIPOS>ATOM
   1   C1       20.8251    4.0376   28.6794  C.2 1 <0> -0.1356
   2   C2       19.6116    3.6708   28.2722  C.2 1 <0> -0.0410
   3   C3       20.9169    5.3387   29.3916  C.2 1 <0>  0.4856
   4   C4       18.6083    5.6801   29.1731  C.2 1 <0>  0.8408
   5   C5       16.9409    4.3680   26.5751  C.3 1 <0>  0.0000
   6   C6       16.1367    3.1975   26.0584  C.3 1 <0>  0.2800
   7   C7       16.7283    2.0138   26.8111  C.3 1 <0>  0.2800
   8   C8       17.2194    3.9659   28.0142  C.3 1 <0>  0.5801
   9   C9       17.9106    1.3823   26.0876  C.3 1 <0>  0.2800
  10   N1       19.8614    6.0799   29.6048  N.2 1 <0> -0.6611
  11   N2       18.4840    4.4450   28.4907 N.am 1 <0> -0.4690
  12   N3       22.1531    5.7544   29.8290 N.pl3 1 <0> -0.8501
  13   O1       18.7676   -2.3524   26.1510  O.3 1 <0> -1.0332
  14   O2       20.3972   -0.3812   26.2318  O.3 1 <0> -1.0332
  15   O3       17.6243    6.3919   29.3823  O.2 1 <0> -0.5698
  16   O4       18.9314   -0.7527   24.1606  O.2 1 <0> -1.0332
  17   O5       17.2040    2.5323   28.0683  O.3 1 <0> -0.5601
  18   O6       14.7657    3.3623   26.4136  O.3 1 <0> -0.6802
  19   O7       17.9091   -0.0135   26.3390  O.3 1 <0> -0.5513
  20   P1       19.0969   -0.9440   25.6653  P.3 1 <0>  1.3711
  21   H1       21.7105    3.4386   28.5130    H 1 <0>  0.1500
  22   H2       19.4547    2.7360   27.7455    H 1 <0>  0.1500
  23   H3       17.8414    4.5655   25.9829    H 1 <0>  0.0000
  24   H4       16.3301    5.2805   26.5463    H 1 <0>  0.0000
  25   H5       16.2183    3.1021   24.9848    H 1 <0>  0.0000
  26   H6       15.9838    1.2517   27.0143    H 1 <0>  0.0000
  27   H7       16.4461    4.3601   28.6966    H 1 <0>  0.0000
  28   H8       18.8490    1.8078   26.4511    H 1 <0>  0.0000
  29   H9       17.8303    1.5497   25.0110    H 1 <0>  0.0000
  30  H10       22.9320    5.1676   29.6504    H 1 <0>  0.3999
  31  H11       22.2118    6.6227   30.3037    H 1 <0>  0.3999
  32  H12       14.2349    2.7067   25.9552    H 1 <0>  0.3999
@<TRIPOS>BOND
    1     1     2  1
    2     1     3  1
    3     2    11  1
    4     3    10  1
    5     3    12  1
    6     4    10  1
    7     4    11  1
    8     4    15  1
    9     5     6  1
   10     5     8  1
   11     6     7  1
   12     6    18  1
   13     7     9  1
   14     7    17  1
   15     8    11  1
   16     8    17  1
   17     9    19  1
   18    13    20  1
   19    14    20  1
   20    16    20  1
   21    19    20  1
   22     1    21  1
   23     2    22  1
   24     5    23  1
   25     5    24  1
   26     6    25  1
   27     7    26  1
   28     8    27  1
   29     9    28  1
   30     9    29  1
   31    12    30  1
   32    12    31  1
   33    18    32  1

@<TRIPOS>MOLECULE
MOL
   32   33    0    0    0
SMALL
USER_CHARGES


@<TRIPOS>ATOM
   1   C1       20.8214    4.0964   28.6219  C.2 1 <0> -0.1356
   2   C2       19.6081    3.7142   28.2286  C.2 1 <0> -0.0410
   3   C3       20.9075    5.4079   29.3158  C.2 1 <0>  0.4856
   4   C4       18.5945    5.7272   29.1096  C.2 1 <0>  0.8408
   5   C5       16.9196    4.3663   26.5418  C.3 1 <0>  0.0000
   6   C6       16.1215    3.1822   26.0468  C.3 1 <0>  0.2800
   7   C7       16.7283    2.0138   26.8111  C.3 1 <0>  0.2800
   8   C8       17.2118    3.9860   27.9841  C.3 1 <0>  0.5801
   9   C9       17.9106    1.3823   26.0876  C.3 1 <0>  0.2800
  10   N1       19.8474    6.1431   29.5266  N.2 1 <0> -0.6611
  11   N2       18.4756    4.4819   28.4448 N.am 1 <0> -0.4690
  12   N3       22.1432    5.8396   29.7385 N.pl3 1 <0> -0.8501
  13   O1       18.7676   -2.3524   26.1510  O.3 1 <0> -1.0332
  14   O2       20.3972   -0.3812   26.2318  O.3 1 <0> -1.0332
  15   O3       17.6062    6.4337   29.3163  O.2 1 <0> -0.5698
  16   O4       18.9314   -0.7527   24.1606  O.2 1 <0> -1.0332
  17   O5       17.2087    2.5532   28.0576  O.3 1 <0> -0.5601
  18   O6       14.7517    3.3406   26.4098  O.3 1 <0> -0.6802
  19   O7       17.9091   -0.0135   26.3390  O.3 1 <0> -0.5513
  20   P1       19.0969   -0.9440   25.6653  P.3 1 <0>  1.3711
  21   H1       21.7105    3.5026   28.4572    H 1 <0>  0.1500
  22   H2       19.4552    2.7711   27.7158    H 1 <0>  0.1500
  23   H3       17.8142    4.5631   25.9404    H 1 <0>  0.0000
  24   H4       16.3010    5.2732   26.5051    H 1 <0>  0.0000
  25   H5       16.1962    3.0730   24.9740    H 1 <0>  0.0000
  26   H6       15.9917    1.2484   27.0300    H 1 <0>  0.0000
  27   H7       16.4401    4.3830   28.6668    H 1 <0>  0.0000
  28   H8       18.8490    1.8078   26.4511    H 1 <0>  0.0000
  29   H9       17.8303    1.5497   25.0110    H 1 <0>  0.0000
  30  H10       22.9257    5.2569   29.5622    H 1 <0>  0.3999
  31  H11       22.1981    6.7147   30.2010    H 1 <0>  0.3999
  32  H12       14.2231    2.6745   25.9642    H 1 <0>  0.3999
@<TRIPOS>BOND
    1     1     2  1
    2     1     3  1
    3     2    11  1
    4     3    10  1
    5     3    12  1
    6     4    10  1
    7     4    11  1
    8     4    15  1
    9     5     6  1
   10     5     8  1
   11     6     7  1
   12     6    18  1
   13     7     9  1
   14     7    17  1
   15     8    11  1
   16     8    17  1
   17     9    19  1
   18    13    20  1
   19    14    20  1
   20    16    20  1
   21    19    20  1
   22     1    21  1
   23     2    22  1
   24     5    23  1
   25     5    24  1
   26     6    25  1
   27     7    26  1
   28     8    27  1
   29     9    28  1
   30     9    29  1
   31    12    30  1
   32    12    31  1
   33    18    32  1

@<TRIPOS>MOLECULE
MOL
   32   33    0    0    0
SMALL
USER_CHARGES


@<TRIPOS>ATOM
   1   C1       20.8168    4.1545   28.5637  C.2 1 <0> -0.1356
   2   C2       19.6039    3.7569   28.1845  C.2 1 <0> -0.0410
   3   C3       20.8969    5.4759   29.2391  C.2 1 <0>  0.4856
   4   C4       18.5799    5.7733   29.0455  C.2 1 <0>  0.8408
   5   C5       16.8980    4.3639   26.5086  C.3 1 <0>  0.0000
   6   C6       16.1063    3.1667   26.0355  C.3 1 <0>  0.2800
   7   C7       16.7283    2.0138   26.8111  C.3 1 <0>  0.2800
   8   C8       17.2037    4.0057   27.9538  C.3 1 <0>  0.5801
   9   C9       17.9106    1.3823   26.0876  C.3 1 <0>  0.2800
  10   N1       19.8323    6.2052   29.4477  N.2 1 <0> -0.6611
  11   N2       18.4667    4.5182   28.3985 N.am 1 <0> -0.4690
  12   N3       22.1320    5.9235   29.6470 N.pl3 1 <0> -0.8501
  13   O1       18.7676   -2.3524   26.1510  O.3 1 <0> -1.0332
  14   O2       20.3972   -0.3812   26.2318  O.3 1 <0> -1.0332
  15   O3       17.5873    6.4744   29.2499  O.2 1 <0> -0.5698
  16   O4       18.9314   -0.7527   24.1606  O.2 1 <0> -1.0332
  17   O5       17.2131    2.5740   28.0467  O.3 1 <0> -0.5601
  18   O6       14.7379    3.3187   26.4063  O.3 1 <0> -0.6802
  19   O7       17.9091   -0.0135   26.3390  O.3 1 <0> -0.5513
  20   P1       19.0969   -0.9440   25.6653  P.3 1 <0>  1.3711
  21   H1       21.7096    3.5658   28.4006    H 1 <0>  0.1500
  22   H2       19.4552    2.8057   27.6855    H 1 <0>  0.1500
  23   H3       17.7866    4.5599   25.8981    H 1 <0>  0.0000
  24   H4       16.2717    5.2651   26.4641    H 1 <0>  0.0000
  25   H5       16.1742    3.0436   24.9638    H 1 <0>  0.0000
  26   H6       15.9997    1.2454   27.0457    H 1 <0>  0.0000
  27   H7       16.4336    4.4056   28.6366    H 1 <0>  0.0000
  28   H8       18.8490    1.8078   26.4511    H 1 <0>  0.0000
  29   H9       17.8303    1.5497   25.0110    H 1 <0>  0.0000
  30  H10       22.9180    5.3449   29.4729    H 1 <0>  0.3999
  31  H11       22.1829    6.8052   30.0972    H 1 <0>  0.3999
  32  H12       14.2117    2.6422   25.9736    H 1 <0>  0.3999
@<TRIPOS>BOND
    1     1     2  1
    2     1     3  1
    3     2    11  1
    4     3    10  1
    5     3    12  1
    6     4    10  1
    7     4    11  1
    8     4    15  1
    9     5     6  1
   10     5     8  1
   11     6     7  1
   12     6    18  1
   13     7     9  1
   14     7    17  1
   15     8    11  1
   16     8    17  1
   17     9    19  1
   18    13    20  1
   19    14    20  1
   20    16    20  1
   21    19    20  1
   22     1    21  1
   23     2    22  1
   24     5    23  1
   25     5    24  1
   26     6    25  1
   27     7    26  1
   28     8    27  1
   29     9    28  1
   30     9    29  1
   31    12    30  1
   32    12    31  1
   33    18    32  1

@<TRIPOS>MOLECULE
MOL
   32   33    0    0    0
SMALL
USER_CHARGES


@<TRIPOS>ATOM
   1   C1       20.8113    4.2117   28.5047  C.2 1 <0> -0.1356
   2   C2       19.5991    3.7990   28.1398  C.2 1 <0> -0.0410
   3   C3       20.8852    5.5428   29.1617  C.2 1 <0>  0.4856
   4   C4       18.5645    5.8185   28.9809  C.2 1 <0>  0.8408
   5   C5       16.8762    4.3609   26.4757  C.3 1 <0>  0.0000
   6   C6       16.0912    3.1509   26.0246  C.3 1 <0>  0.2800
   7   C7       16.7283    2.0138   26.8111  C.3 1 <0>  0.2800
   8   C8       17.1953    4.0248   27.9233  C.3 1 <0>  0.5801
   9   C9       17.9106    1.3823   26.0876  C.3 1 <0>  0.2800
  10   N1       19.8160    6.2660   29.3681  N.2 1 <0> -0.6611
  11   N2       18.4571    4.5538   28.3518 N.am 1 <0> -0.4690
  12   N3       22.1194    6.0060   29.5544 N.pl3 1 <0> -0.8501
  13   O1       18.7676   -2.3524   26.1510  O.3 1 <0> -1.0332
  14   O2       20.3972   -0.3812   26.2318  O.3 1 <0> -1.0332
  15   O3       17.5676    6.5140   29.1830  O.2 1 <0> -0.5698
  16   O4       18.9314   -0.7527   24.1606  O.2 1 <0> -1.0332
  17   O5       17.2173    2.5947   28.0355  O.3 1 <0> -0.5601
  18   O6       14.7242    3.2966   26.4032  O.3 1 <0> -0.6802
  19   O7       17.9091   -0.0135   26.3390  O.3 1 <0> -0.5513
  20   P1       19.0969   -0.9440   25.6653  P.3 1 <0>  1.3711
  21   H1       21.7078    3.6283   28.3431    H 1 <0>  0.1500
  22   H2       19.4548    2.8400   27.6548    H 1 <0>  0.1500
  23   H3       17.7587    4.5559   25.8561    H 1 <0>  0.0000
  24   H4       16.2421    5.2562   26.4236    H 1 <0>  0.0000
  25   H5       16.1524    3.0138   24.9541    H 1 <0>  0.0000
  26   H6       16.0078    1.2427   27.0613    H 1 <0>  0.0000
  27   H7       16.4268    4.4276   28.6062    H 1 <0>  0.0000
  28   H8       18.8490    1.8078   26.4511    H 1 <0>  0.0000
  29   H9       17.8303    1.5497   25.0110    H 1 <0>  0.0000
  30  H10       22.9090    5.4316   29.3824    H 1 <0>  0.3999
  31  H11       22.1662    6.8942   29.9923    H 1 <0>  0.3999
  32  H12       14.2006    2.6101   25.9836    H 1 <0>  0.3999
@<TRIPOS>BOND
    1     1     2  1
    2     1     3  1
    3     2    11  1
    4     3    10  1
    5     3    12  1
    6     4    10  1
    7     4    11  1
    8     4    15  1
    9     5     6  1
   10     5     8  1
   11     6     7  1
   12     6    18  1
   13     7     9  1
   14     7    17  1
   15     8    11  1
   16     8    17  1
   17     9    19  1
   18    13    20  1
   19    14    20  1
   20    16    20  1
   21    19    20  1
   22     1    21  1
   23     2    22  1
   24     5    23  1
   25     5    24  1
   26     6    25  1
   27     7    26  1
   28     8    27  1
   29     9    28  1
   30     9    29  1
   31    12    30  1
   32    12    31  1
   33    18    32  1

@<TRIPOS>MOLECULE
MOL
   32   33    0    0    0
SMALL
USER_CHARGES


@<TRIPOS>ATOM
   1   C1       20.8048    4.2681   28.4451  C.2 1 <0> -0.1356
   2   C2       19.5935    3.8405   28.0946  C.2 1 <0> -0.0410
   3   C3       20.8724    5.6085   29.0834  C.2 1 <0>  0.4856
   4   C4       18.5483    5.8626   28.9159  C.2 1 <0>  0.8408
   5   C5       16.8542    4.3573   26.4429  C.3 1 <0>  0.0000
   6   C6       16.0761    3.1348   26.0139  C.3 1 <0>  0.2800
   7   C7       16.7283    2.0138   26.8111  C.3 1 <0>  0.2800
   8   C8       17.1865    4.0435   27.8926  C.3 1 <0>  0.5801
   9   C9       17.9106    1.3823   26.0876  C.3 1 <0>  0.2800
  10   N1       19.7988    6.3257   29.2878  N.2 1 <0> -0.6611
  11   N2       18.4469    4.5886   28.3047 N.am 1 <0> -0.4690
  12   N3       22.1055    6.0872   29.4608 N.pl3 1 <0> -0.8501
  13   O1       18.7676   -2.3524   26.1510  O.3 1 <0> -1.0332
  14   O2       20.3972   -0.3812   26.2318  O.3 1 <0> -1.0332
  15   O3       17.5470    6.5525   29.1158  O.2 1 <0> -0.5698
  16   O4       18.9314   -0.7527   24.1606  O.2 1 <0> -1.0332
  17   O5       17.2212    2.6153   28.0239  O.3 1 <0> -0.5601
  18   O6       14.7107    3.2744   26.4006  O.3 1 <0> -0.6802
  19   O7       17.9091   -0.0135   26.3390  O.3 1 <0> -0.5513
  20   P1       19.0969   -0.9440   25.6653  P.3 1 <0>  1.3711
  21   H1       21.7050    3.6899   28.2848    H 1 <0>  0.1500
  22   H2       19.4538    2.8738   27.6237    H 1 <0>  0.1500
  23   H3       17.7306    4.5511   25.8143    H 1 <0>  0.0000
  24   H4       16.2123    5.2465   26.3833    H 1 <0>  0.0000
  25   H5       16.1307    2.9837   24.9450    H 1 <0>  0.0000
  26   H6       16.0161    1.2403   27.0770    H 1 <0>  0.0000
  27   H7       16.4196    4.4492   28.5756    H 1 <0>  0.0000
  28   H8       18.8490    1.8078   26.4511    H 1 <0>  0.0000
  29   H9       17.8303    1.5497   25.0110    H 1 <0>  0.0000
  30  H10       22.8986    5.5170   29.2908    H 1 <0>  0.3999
  31  H11       22.1480    6.9816   29.8863    H 1 <0>  0.3999
  32  H12       14.1898    2.5779   25.9940    H 1 <0>  0.3999
@<TRIPOS>BOND
    1     1     2  1
    2     1     3  1
    3     2    11  1
    4     3    10  1
    5     3    12  1
    6     4    10  1
    7     4    11  1
    8     4    15  1
    9     5     6  1
   10     5     8  1
   11     6     7  1
   12     6    18  1
   13     7     9  1
   14     7    17  1
   15     8    11  1
   16     8    17  1
   17     9    19  1
   18    13    20  1
   19    14    20  1
   20    16    20  1
   21    19    20  1
   22     1    21  1
   23     2    22  1
   24     5    23  1
   25     5    24  1
   26     6    25  1
   27     7    26  1
   28     8    27  1
   29     9    28  1
   30     9    29  1
   31    12    30  1
   32    12    31  1
   33    18    32  1

@<TRIPOS>MOLECULE
MOL
   32   33    0    0    0
SMALL
USER_CHARGES


@<TRIPOS>ATOM
   1   C1       20.7975    4.3235   28.3847  C.2 1 <0> -0.1356
   2   C2       19.5873    3.8813   28.0489  C.2 1 <0> -0.0410
   3   C3       20.8585    5.6730   29.0043  C.2 1 <0>  0.4856
   4   C4       18.5312    5.9057   28.8503  C.2 1 <0>  0.8408
   5   C5       16.8320    4.3530   26.4104  C.3 1 <0>  0.0000
   6   C6       16.0610    3.1185   26.0036  C.3 1 <0>  0.2800
   7   C7       16.7283    2.0138   26.8111  C.3 1 <0>  0.2800
   8   C8       17.1773    4.0617   27.8617  C.3 1 <0>  0.5801
   9   C9       17.9106    1.3823   26.0876  C.3 1 <0>  0.2800
  10   N1       19.7804    6.3841   29.2069  N.2 1 <0> -0.6611
  11   N2       18.4360    4.6227   28.2572 N.am 1 <0> -0.4690
  12   N3       22.0903    6.1670   29.3662 N.pl3 1 <0> -0.8501
  13   O1       18.7676   -2.3524   26.1510  O.3 1 <0> -1.0332
  14   O2       20.3972   -0.3812   26.2318  O.3 1 <0> -1.0332
  15   O3       17.5257    6.5900   29.0482  O.2 1 <0> -0.5698
  16   O4       18.9314   -0.7527   24.1606  O.2 1 <0> -1.0332
  17   O5       17.2248    2.6358   28.0120  O.3 1 <0> -0.5601
  18   O6       14.6974    3.2520   26.3983  O.3 1 <0> -0.6802
  19   O7       17.9091   -0.0135   26.3390  O.3 1 <0> -0.5513
  20   P1       19.0969   -0.9440   25.6653  P.3 1 <0>  1.3711
  21   H1       21.7013    3.7507   28.2257    H 1 <0>  0.1500
  22   H2       19.4523    2.9072   27.5921    H 1 <0>  0.1500
  23   H3       17.7022    4.5455   25.7728    H 1 <0>  0.0000
  24   H4       16.1823    5.2361   26.3435    H 1 <0>  0.0000
  25   H5       16.1093    2.9533   24.9365    H 1 <0>  0.0000
  26   H6       16.0245    1.2381   27.0926    H 1 <0>  0.0000
  27   H7       16.4120    4.4703   28.5447    H 1 <0>  0.0000
  28   H8       18.8490    1.8078   26.4511    H 1 <0>  0.0000
  29   H9       17.8303    1.5497   25.0110    H 1 <0>  0.0000
  30  H10       22.8868    5.6011   29.1982    H 1 <0>  0.3999
  31  H11       22.1284    7.0674   29.7793    H 1 <0>  0.3999
  32  H12       14.1794    2.5458   26.0050    H 1 <0>  0.3999
@<TRIPOS>BOND
    1     1     2  1
    2     1     3  1
    3     2    11  1
    4     3    10  1
    5     3    12  1
    6     4    10  1
    7     4    11  1
    8     4    15  1
    9     5     6  1
   10     5     8  1
   11     6     7  1
   12     6    18  1
   13     7     9  1
   14     7    17  1
   15     8    11  1
   16     8    17  1
   17     9    19  1
   18    13    20  1
   19    14    20  1
   20    16    20  1
   21    19    20  1
   22     1    21  1
   23     2    22  1
   24     5    23  1
   25     5    24  1
   26     6    25  1
   27     7    26  1
   28     8    27  1
   29     9    28  1
   30     9    29  1
   31    12    30  1
   32    12    31  1
   33    18    32  1

@<TRIPOS>MOLECULE
MOL
   32   33    0    0    0
SMALL
USER_CHARGES


@<TRIPOS>ATOM
   1   C1       20.7893    4.3782   28.3236  C.2 1 <0> -0.1356
   2   C2       19.5805    3.9215   28.0026  C.2 1 <0> -0.0410
   3   C3       20.8435    5.7364   28.9245  C.2 1 <0>  0.4856
   4   C4       18.5133    5.9477   28.7843  C.2 1 <0>  0.8408
   5   C5       16.8097    4.3481   26.3780  C.3 1 <0>  0.0000
   6   C6       16.0461    3.1019   25.9937  C.3 1 <0>  0.2800
   7   C7       16.7283    2.0138   26.8111  C.3 1 <0>  0.2800
   8   C8       17.1677    4.0794   27.8306  C.3 1 <0>  0.5801
   9   C9       17.9106    1.3823   26.0876  C.3 1 <0>  0.2800
  10   N1       19.7610    6.4412   29.1253  N.2 1 <0> -0.6611
  11   N2       18.4245    4.6561   28.2093 N.am 1 <0> -0.4690
  12   N3       22.0736    6.2453   29.2707 N.pl3 1 <0> -0.8501
  13   O1       18.7676   -2.3524   26.1510  O.3 1 <0> -1.0332
  14   O2       20.3972   -0.3812   26.2318  O.3 1 <0> -1.0332
  15   O3       17.5035    6.6264   28.9803  O.2 1 <0> -0.5698
  16   O4       18.9314   -0.7527   24.1606  O.2 1 <0> -1.0332
  17   O5       17.2282    2.6561   27.9999  O.3 1 <0> -0.5601
  18   O6       14.6842    3.2295   26.3964  O.3 1 <0> -0.6802
  19   O7       17.9091   -0.0135   26.3390  O.3 1 <0> -0.5513
  20   P1       19.0969   -0.9440   25.6653  P.3 1 <0>  1.3711
  21   H1       21.6967    3.8107   28.1658    H 1 <0>  0.1500
  22   H2       19.4502    2.9401   27.5601    H 1 <0>  0.1500
  23   H3       17.6736    4.5391   25.7316    H 1 <0>  0.0000
  24   H4       16.1521    5.2248   26.3039    H 1 <0>  0.0000
  25   H5       16.0880    2.9226   24.9285    H 1 <0>  0.0000
  26   H6       16.0330    1.2362   27.1082    H 1 <0>  0.0000
  27   H7       16.4040    4.4909   28.5136    H 1 <0>  0.0000
  28   H8       18.8490    1.8078   26.4511    H 1 <0>  0.0000
  29   H9       17.8303    1.5497   25.0110    H 1 <0>  0.0000
  30  H10       22.8736    5.6838   29.1045    H 1 <0>  0.3999
  31  H11       22.1072    7.1515   29.6712    H 1 <0>  0.3999
  32  H12       14.1693    2.5138   26.0165    H 1 <0>  0.3999
@<TRIPOS>BOND
    1     1     2  1
    2     1     3  1
    3     2    11  1
    4     3    10  1
    5     3    12  1
    6     4    10  1
    7     4    11  1
    8     4    15  1
    9     5     6  1
   10     5     8  1
   11     6     7  1
   12     6    18  1
   13     7     9  1
   14     7    17  1
   15     8    11  1
   16     8    17  1
   17     9    19  1
   18    13    20  1
   19    14    20  1
   20    16    20  1
   21    19    20  1
   22     1    21  1
   23     2    22  1
   24     5    23  1
   25     5    24  1
   26     6    25  1
   27     7    26  1
   28     8    27  1
   29     9    28  1
   30     9    29  1
   31    12    30  1
   32    12    31  1
   33    18    32  1

@<TRIPOS>MOLECULE
MOL
   32   33    0    0    0
SMALL
USER_CHARGES


@<TRIPOS>ATOM
   1   C1       20.7802    4.4319   28.2619  C.2 1 <0> -0.1356
   2   C2       19.5730    3.9609   27.9559  C.2 1 <0> -0.0410
   3   C3       20.8274    5.7985   28.8439  C.2 1 <0>  0.4856
   4   C4       18.4945    5.9887   28.7179  C.2 1 <0>  0.8408
   5   C5       16.7871    4.3426   26.3459  C.3 1 <0>  0.0000
   6   C6       16.0312    3.0850   25.9840  C.3 1 <0>  0.2800
   7   C7       16.7283    2.0138   26.8111  C.3 1 <0>  0.2800
   8   C8       17.1578    4.0966   27.7993  C.3 1 <0>  0.5801
   9   C9       17.9106    1.3823   26.0876  C.3 1 <0>  0.2800
  10   N1       19.7405    6.4970   29.0430  N.2 1 <0> -0.6611
  11   N2       18.4124    4.6887   28.1610 N.am 1 <0> -0.4690
  12   N3       22.0557    6.3222   29.1742 N.pl3 1 <0> -0.8501
  13   O1       18.7676   -2.3524   26.1510  O.3 1 <0> -1.0332
  14   O2       20.3972   -0.3812   26.2318  O.3 1 <0> -1.0332
  15   O3       17.4806    6.6616   28.9120  O.2 1 <0> -0.5698
  16   O4       18.9314   -0.7527   24.1606  O.2 1 <0> -1.0332
  17   O5       17.2314    2.6763   27.9874  O.3 1 <0> -0.5601
  18   O6       14.6712    3.2069   26.3949  O.3 1 <0> -0.6802
  19   O7       17.9091   -0.0135   26.3390  O.3 1 <0> -0.5513
  20   P1       19.0969   -0.9440   25.6653  P.3 1 <0>  1.3711
  21   H1       21.6911    3.8698   28.1051    H 1 <0>  0.1500
  22   H2       19.4477    2.9726   27.5276    H 1 <0>  0.1500
  23   H3       17.6447    4.5319   25.6907    H 1 <0>  0.0000
  24   H4       16.1217    5.2128   26.2648    H 1 <0>  0.0000
  25   H5       16.0670    2.8917   24.9211    H 1 <0>  0.0000
  26   H6       16.0417    1.2346   27.1237    H 1 <0>  0.0000
  27   H7       16.3956    4.5111   28.4823    H 1 <0>  0.0000
  28   H8       18.8490    1.8078   26.4511    H 1 <0>  0.0000
  29   H9       17.8303    1.5497   25.0110    H 1 <0>  0.0000
  30  H10       22.8591    5.7651   29.0098    H 1 <0>  0.3999
  31  H11       22.0846    7.2340   29.5622    H 1 <0>  0.3999
  32  H12       14.1596    2.4819   26.0285    H 1 <0>  0.3999
@<TRIPOS>BOND
    1     1     2  1
    2     1     3  1
    3     2    11  1
    4     3    10  1
    5     3    12  1
    6     4    10  1
    7     4    11  1
    8     4    15  1
    9     5     6  1
   10     5     8  1
   11     6     7  1
   12     6    18  1
   13     7     9  1
   14     7    17  1
   15     8    11  1
   16     8    17  1
   17     9    19  1
   18    13    20  1
   19    14    20  1
   20    16    20  1
   21    19    20  1
   22     1    21  1
   23     2    22  1
   24     5    23  1
   25     5    24  1
   26     6    25  1
   27     7    26  1
   28     8    27  1
   29     9    28  1
   30     9    29  1
   31    12    30  1
   32    12    31  1
   33    18    32  1

@<TRIPOS>MOLECULE
MOL
   32   33    0    0    0
SMALL
USER_CHARGES


@<TRIPOS>ATOM
   1   C1       20.7702    4.4846   28.1995  C.2 1 <0> -0.1356
   2   C2       19.5648    3.9996   27.9087  C.2 1 <0> -0.0410
   3   C3       20.8102    5.8594   28.7626  C.2 1 <0>  0.4856
   4   C4       18.4749    6.0287   28.6511  C.2 1 <0>  0.8408
   5   C5       16.7643    4.3365   26.3141  C.3 1 <0>  0.0000
   6   C6       16.0163    3.0679   25.9747  C.3 1 <0>  0.2800
   7   C7       16.7283    2.0138   26.8111  C.3 1 <0>  0.2800
   8   C8       17.1475    4.1133   27.7679  C.3 1 <0>  0.5801
   9   C9       17.9106    1.3823   26.0876  C.3 1 <0>  0.2800
  10   N1       19.7189    6.5516   28.9602  N.2 1 <0> -0.6611
  11   N2       18.3997    4.7206   28.1124 N.am 1 <0> -0.4690
  12   N3       22.0364    6.3977   29.0769 N.pl3 1 <0> -0.8501
  13   O1       18.7676   -2.3524   26.1510  O.3 1 <0> -1.0332
  14   O2       20.3972   -0.3812   26.2318  O.3 1 <0> -1.0332
  15   O3       17.4569    6.6958   28.8435  O.2 1 <0> -0.5698
  16   O4       18.9314   -0.7527   24.1606  O.2 1 <0> -1.0332
  17   O5       17.2343    2.6963   27.9746  O.3 1 <0> -0.5601
  18   O6       14.6584    3.1842   26.3938  O.3 1 <0> -0.6802
  19   O7       17.9091   -0.0135   26.3390  O.3 1 <0> -0.5513
  20   P1       19.0969   -0.9440   25.6653  P.3 1 <0>  1.3711
  21   H1       21.6846    3.9280   28.0437    H 1 <0>  0.1500
  22   H2       19.4447    3.0046   27.4947    H 1 <0>  0.1500
  23   H3       17.6156    4.5240   25.6501    H 1 <0>  0.0000
  24   H4       16.0912    5.2000   26.2260    H 1 <0>  0.0000
  25   H5       16.0461    2.8605   24.9143    H 1 <0>  0.0000
  26   H6       16.0505    1.2333   27.1392    H 1 <0>  0.0000
  27   H7       16.3867    4.5307   28.4508    H 1 <0>  0.0000
  28   H8       18.8490    1.8078   26.4511    H 1 <0>  0.0000
  29   H9       17.8303    1.5497   25.0110    H 1 <0>  0.0000
  30  H10       22.8433    5.8450   28.9142    H 1 <0>  0.3999
  31  H11       22.0605    7.3149   29.4523    H 1 <0>  0.3999
  32  H12       14.1503    2.4500   26.0410    H 1 <0>  0.3999
@<TRIPOS>BOND
    1     1     2  1
    2     1     3  1
    3     2    11  1
    4     3    10  1
    5     3    12  1
    6     4    10  1
    7     4    11  1
    8     4    15  1
    9     5     6  1
   10     5     8  1
   11     6     7  1
   12     6    18  1
   13     7     9  1
   14     7    17  1
   15     8    11  1
   16     8    17  1
   17     9    19  1
   18    13    20  1
   19    14    20  1
   20    16    20  1
   21    19    20  1
   22     1    21  1
   23     2    22  1
   24     5    23  1
   25     5    24  1
   26     6    25  1
   27     7    26  1
   28     8    27  1
   29     9    28  1
   30     9    29  1
   31    12    30  1
   32    12    31  1
   33    18    32  1

@<TRIPOS>MOLECULE
MOL
   32   33    0    0    0
SMALL
USER_CHARGES


@<TRIPOS>ATOM
   1   C1       20.7593    4.5365   28.1364  C.2 1 <0> -0.1356
   2   C2       19.5559    4.0377   27.8610  C.2 1 <0> -0.0410
   3   C3       20.7918    5.9191   28.6806  C.2 1 <0>  0.4856
   4   C4       18.4546    6.0675   28.5839  C.2 1 <0>  0.8408
   5   C5       16.7414    4.3297   26.2825  C.3 1 <0>  0.0000
   6   C6       16.0016    3.0506   25.9658  C.3 1 <0>  0.2800
   7   C7       16.7283    2.0138   26.8111  C.3 1 <0>  0.2800
   8   C8       17.1368    4.1295   27.7364  C.3 1 <0>  0.5801
   9   C9       17.9106    1.3823   26.0876  C.3 1 <0>  0.2800
  10   N1       19.6964    6.6048   28.8768  N.2 1 <0> -0.6611
  11   N2       18.3864    4.7517   28.0635 N.am 1 <0> -0.4690
  12   N3       22.0158    6.4716   28.9786 N.pl3 1 <0> -0.8501
  13   O1       18.7676   -2.3524   26.1510  O.3 1 <0> -1.0332
  14   O2       20.3972   -0.3812   26.2318  O.3 1 <0> -1.0332
  15   O3       17.4324    6.7288   28.7746  O.2 1 <0> -0.5698
  16   O4       18.9314   -0.7527   24.1606  O.2 1 <0> -1.0332
  17   O5       17.2369    2.7162   27.9616  O.3 1 <0> -0.5601
  18   O6       14.6458    3.1613   26.3932  O.3 1 <0> -0.6802
  19   O7       17.9091   -0.0135   26.3390  O.3 1 <0> -0.5513
  20   P1       19.0969   -0.9440   25.6653  P.3 1 <0>  1.3711
  21   H1       21.6772    3.9853   27.9815    H 1 <0>  0.1500
  22   H2       19.4412    3.0362   27.4615    H 1 <0>  0.1500
  23   H3       17.5863    4.5152   25.6099    H 1 <0>  0.0000
  24   H4       16.0604    5.1864   26.1877    H 1 <0>  0.0000
  25   H5       16.0255    2.8290   24.9080    H 1 <0>  0.0000
  26   H6       16.0594    1.2323   27.1547    H 1 <0>  0.0000
  27   H7       16.3776    4.5498   28.4190    H 1 <0>  0.0000
  28   H8       18.8490    1.8078   26.4511    H 1 <0>  0.0000
  29   H9       17.8303    1.5497   25.0110    H 1 <0>  0.0000
  30  H10       22.8260    5.9235   28.8175    H 1 <0>  0.3999
  31  H11       22.0349    7.3940   29.3414    H 1 <0>  0.3999
  32  H12       14.1412    2.4183   26.0540    H 1 <0>  0.3999
@<TRIPOS>BOND
    1     1     2  1
    2     1     3  1
    3     2    11  1
    4     3    10  1
    5     3    12  1
    6     4    10  1
    7     4    11  1
    8     4    15  1
    9     5     6  1
   10     5     8  1
   11     6     7  1
   12     6    18  1
   13     7     9  1
   14     7    17  1
   15     8    11  1
   16     8    17  1
   17     9    19  1
   18    13    20  1
   19    14    20  1
   20    16    20  1
   21    19    20  1
   22     1    21  1
   23     2    22  1
   24     5    23  1
   25     5    24  1
   26     6    25  1
   27     7    26  1
   28     8    27  1
   29     9    28  1
   30     9    29  1
   31    12    30  1
   32    12    31  1
   33    18    32  1

@<TRIPOS>MOLECULE
MOL
   32   33    0    0    0
SMALL
USER_CHARGES


@<TRIPOS>ATOM
   1   C1       20.7476    4.5874   28.0728  C.2 1 <0> -0.1356
   2   C2       19.5464    4.0750   27.8129  C.2 1 <0> -0.0410
   3   C3       20.7725    5.9774   28.5980  C.2 1 <0>  0.4856
   4   C4       18.4334    6.1053   28.5163  C.2 1 <0>  0.8408
   5   C5       16.7183    4.3224   26.2512  C.3 1 <0>  0.0000
   6   C6       15.9869    3.0330   25.9571  C.3 1 <0>  0.2800
   7   C7       16.7283    2.0138   26.8111  C.3 1 <0>  0.2800
   8   C8       17.1258    4.1452   27.7047  C.3 1 <0>  0.5801
   9   C9       17.9106    1.3823   26.0876  C.3 1 <0>  0.2800
  10   N1       19.6727    6.6568   28.7929  N.2 1 <0> -0.6611
  11   N2       18.3725    4.7820   28.0143 N.am 1 <0> -0.4690
  12   N3       21.9939    6.5440   28.8796 N.pl3 1 <0> -0.8501
  13   O1       18.7676   -2.3524   26.1510  O.3 1 <0> -1.0332
  14   O2       20.3972   -0.3812   26.2318  O.3 1 <0> -1.0332
  15   O3       17.4071    6.7606   28.7055  O.2 1 <0> -0.5698
  16   O4       18.9314   -0.7527   24.1606  O.2 1 <0> -1.0332
  17   O5       17.2393    2.7359   27.9482  O.3 1 <0> -0.5601
  18   O6       14.6333    3.1383   26.3929  O.3 1 <0> -0.6802
  19   O7       17.9091   -0.0135   26.3390  O.3 1 <0> -0.5513
  20   P1       19.0969   -0.9440   25.6653  P.3 1 <0>  1.3711
  21   H1       21.6689    4.0418   27.9186    H 1 <0>  0.1500
  22   H2       19.4372    3.0672   27.4278    H 1 <0>  0.1500
  23   H3       17.5568    4.5056   25.5699    H 1 <0>  0.0000
  24   H4       16.0295    5.1720   26.1497    H 1 <0>  0.0000
  25   H5       16.0051    2.7973   24.9024    H 1 <0>  0.0000
  26   H6       16.0684    1.2315   27.1701    H 1 <0>  0.0000
  27   H7       16.3680    4.5684   28.3871    H 1 <0>  0.0000
  28   H8       18.8490    1.8078   26.4511    H 1 <0>  0.0000
  29   H9       17.8303    1.5497   25.0110    H 1 <0>  0.0000
  30  H10       22.8075    6.0005   28.7200    H 1 <0>  0.3999
  31  H11       22.0079    7.4714   29.2297    H 1 <0>  0.3999
  32  H12       14.1326    2.3866   26.0675    H 1 <0>  0.3999
@<TRIPOS>BOND
    1     1     2  1
    2     1     3  1
    3     2    11  1
    4     3    10  1
    5     3    12  1
    6     4    10  1
    7     4    11  1
    8     4    15  1
    9     5     6  1
   10     5     8  1
   11     6     7  1
   12     6    18  1
   13     7     9  1
   14     7    17  1
   15     8    11  1
   16     8    17  1
   17     9    19  1
   18    13    20  1
   19    14    20  1
   20    16    20  1
   21    19    20  1
   22     1    21  1
   23     2    22  1
   24     5    23  1
   25     5    24  1
   26     6    25  1
   27     7    26  1
   28     8    27  1
   29     9    28  1
   30     9    29  1
   31    12    30  1
   32    12    31  1
   33    18    32  1

@<TRIPOS>MOLECULE
MOL
   32   33    0    0    0
SMALL
USER_CHARGES


@<TRIPOS>ATOM
   1   C1       20.7349    4.6373   28.0085  C.2 1 <0> -0.1356
   2   C2       19.5362    4.1115   27.7644  C.2 1 <0> -0.0410
   3   C3       20.7520    6.0345   28.5147  C.2 1 <0>  0.4856
   4   C4       18.4114    6.1420   28.4483  C.2 1 <0>  0.8408
   5   C5       16.6950    4.3144   26.2201  C.3 1 <0>  0.0000
   6   C6       15.9723    3.0151   25.9489  C.3 1 <0>  0.2800
   7   C7       16.7283    2.0138   26.8111  C.3 1 <0>  0.2800
   8   C8       17.1144    4.1603   27.6729  C.3 1 <0>  0.5801
   9   C9       17.9106    1.3823   26.0876  C.3 1 <0>  0.2800
  10   N1       19.6481    6.7074   28.7084  N.2 1 <0> -0.6611
  11   N2       18.3579    4.8115   27.9647 N.am 1 <0> -0.4690
  12   N3       21.9706    6.6150   28.7797 N.pl3 1 <0> -0.8501
  13   O1       18.7676   -2.3524   26.1510  O.3 1 <0> -1.0332
  14   O2       20.3972   -0.3812   26.2318  O.3 1 <0> -1.0332
  15   O3       17.3811    6.7914   28.6362  O.2 1 <0> -0.5698
  16   O4       18.9314   -0.7527   24.1606  O.2 1 <0> -1.0332
  17   O5       17.2414    2.7555   27.9346  O.3 1 <0> -0.5601
  18   O6       14.6211    3.1152   26.3930  O.3 1 <0> -0.6802
  19   O7       17.9091   -0.0135   26.3390  O.3 1 <0> -0.5513
  20   P1       19.0969   -0.9440   25.6653  P.3 1 <0>  1.3711
  21   H1       21.6596    4.0973   27.8551    H 1 <0>  0.1500
  22   H2       19.4327    3.0978   27.3937    H 1 <0>  0.1500
  23   H3       17.5271    4.4953   25.5304    H 1 <0>  0.0000
  24   H4       15.9985    5.1569   26.1122    H 1 <0>  0.0000
  25   H5       15.9849    2.7653   24.8973    H 1 <0>  0.0000
  26   H6       16.0775    1.2311   27.1854    H 1 <0>  0.0000
  27   H7       16.3580    4.5865   28.3550    H 1 <0>  0.0000
  28   H8       18.8490    1.8078   26.4511    H 1 <0>  0.0000
  29   H9       17.8303    1.5497   25.0110    H 1 <0>  0.0000
  30  H10       22.7876    6.0760   28.6215    H 1 <0>  0.3999
  31  H11       21.9794    7.5471   29.1172    H 1 <0>  0.3999
  32  H12       14.1243    2.3551   26.0814    H 1 <0>  0.3999
@<TRIPOS>BOND
    1     1     2  1
    2     1     3  1
    3     2    11  1
    4     3    10  1
    5     3    12  1
    6     4    10  1
    7     4    11  1
    8     4    15  1
    9     5     6  1
   10     5     8  1
   11     6     7  1
   12     6    18  1
   13     7     9  1
   14     7    17  1
   15     8    11  1
   16     8    17  1
   17     9    19  1
   18    13    20  1
   19    14    20  1
   20    16    20  1
   21    19    20  1
   22     1    21  1
   23     2    22  1
   24     5    23  1
   25     5    24  1
   26     6    25  1
   27     7    26  1
   28     8    27  1
   29     9    28  1
   30     9    29  1
   31    12    30  1
   32    12    31  1
   33    18    32  1

@<TRIPOS>MOLECULE
MOL
   32   33    0    0    0
SMALL
USER_CHARGES


@<TRIPOS>ATOM
   1   C1       20.7214    4.6862   27.9437  C.2 1 <0> -0.1356
   2   C2       19.5254    4.1473   27.7155  C.2 1 <0> -0.0410
   3   C3       20.7304    6.0903   28.4308  C.2 1 <0>  0.4856
   4   C4       18.3886    6.1776   28.3801  C.2 1 <0>  0.8408
   5   C5       16.6716    4.3058   26.1893  C.3 1 <0>  0.0000
   6   C6       15.9578    2.9971   25.9410  C.3 1 <0>  0.2800
   7   C7       16.7283    2.0138   26.8111  C.3 1 <0>  0.2800
   8   C8       17.1027    4.1749   27.6410  C.3 1 <0>  0.5801
   9   C9       17.9106    1.3823   26.0876  C.3 1 <0>  0.2800
  10   N1       19.6224    6.7566   28.6235  N.2 1 <0> -0.6611
  11   N2       18.3428    4.8403   27.9149 N.am 1 <0> -0.4690
  12   N3       21.9461    6.6843   28.6790 N.pl3 1 <0> -0.8501
  13   O1       18.7676   -2.3524   26.1510  O.3 1 <0> -1.0332
  14   O2       20.3972   -0.3812   26.2318  O.3 1 <0> -1.0332
  15   O3       17.3543    6.8209   28.5667  O.2 1 <0> -0.5698
  16   O4       18.9314   -0.7527   24.1606  O.2 1 <0> -1.0332
  17   O5       17.2433    2.7749   27.9207  O.3 1 <0> -0.5601
  18   O6       14.6090    3.0920   26.3935  O.3 1 <0> -0.6802
  19   O7       17.9091   -0.0135   26.3390  O.3 1 <0> -0.5513
  20   P1       19.0969   -0.9440   25.6653  P.3 1 <0>  1.3711
  21   H1       21.6495    4.1518   27.7908    H 1 <0>  0.1500
  22   H2       19.4276    3.1278   27.3593    H 1 <0>  0.1500
  23   H3       17.4971    4.4842   25.4911    H 1 <0>  0.0000
  24   H4       15.9673    5.1410   26.0752    H 1 <0>  0.0000
  25   H5       15.9649    2.7331   24.8928    H 1 <0>  0.0000
  26   H6       16.0868    1.2309   27.2007    H 1 <0>  0.0000
  27   H7       16.3477    4.6041   28.3228    H 1 <0>  0.0000
  28   H8       18.8490    1.8078   26.4511    H 1 <0>  0.0000
  29   H9       17.8303    1.5497   25.0110    H 1 <0>  0.0000
  30  H10       22.7663    6.1500   28.5222    H 1 <0>  0.3999
  31  H11       21.9495    7.6209   29.0038    H 1 <0>  0.3999
  32  H12       14.1164    2.3237   26.0959    H 1 <0>  0.3999
@<TRIPOS>BOND
    1     1     2  1
    2     1     3  1
    3     2    11  1
    4     3    10  1
    5     3    12  1
    6     4    10  1
    7     4    11  1
    8     4    15  1
    9     5     6  1
   10     5     8  1
   11     6     7  1
   12     6    18  1
   13     7     9  1
   14     7    17  1
   15     8    11  1
   16     8    17  1
   17     9    19  1
   18    13    20  1
   19    14    20  1
   20    16    20  1
   21    19    20  1
   22     1    21  1
   23     2    22  1
   24     5    23  1
   25     5    24  1
   26     6    25  1
   27     7    26  1
   28     8    27  1
   29     9    28  1
   30     9    29  1
   31    12    30  1
   32    12    31  1
   33    18    32  1

@<TRIPOS>MOLECULE
MOL
   32   33    0    0    0
SMALL
USER_CHARGES


@<TRIPOS>ATOM
   1   C1       20.7070    4.7342   27.8783  C.2 1 <0> -0.1356
   2   C2       19.5140    4.1824   27.6661  C.2 1 <0> -0.0410
   3   C3       20.7078    6.1448   28.3464  C.2 1 <0>  0.4856
   4   C4       18.3651    6.2120   28.3115  C.2 1 <0>  0.8408
   5   C5       16.6480    4.2966   26.1588  C.3 1 <0>  0.0000
   6   C6       15.9434    2.9788   25.9334  C.3 1 <0>  0.2800
   7   C7       16.7283    2.0138   26.8111  C.3 1 <0>  0.2800
   8   C8       17.0906    4.1890   27.6089  C.3 1 <0>  0.5801
   9   C9       17.9106    1.3823   26.0876  C.3 1 <0>  0.2800
  10   N1       19.5956    6.8044   28.5380  N.2 1 <0> -0.6611
  11   N2       18.3270    4.8682   27.8648 N.am 1 <0> -0.4690
  12   N3       21.9202    6.7521   28.5776 N.pl3 1 <0> -0.8501
  13   O1       18.7676   -2.3524   26.1510  O.3 1 <0> -1.0332
  14   O2       20.3972   -0.3812   26.2318  O.3 1 <0> -1.0332
  15   O3       17.3268    6.8493   28.4969  O.2 1 <0> -0.5698
  16   O4       18.9314   -0.7527   24.1606  O.2 1 <0> -1.0332
  17   O5       17.2448    2.7941   27.9065  O.3 1 <0> -0.5601
  18   O6       14.5971    3.0688   26.3945  O.3 1 <0> -0.6802
  19   O7       17.9091   -0.0135   26.3390  O.3 1 <0> -0.5513
  20   P1       19.0969   -0.9440   25.6653  P.3 1 <0>  1.3711
  21   H1       21.6384    4.2054   27.7259    H 1 <0>  0.1500
  22   H2       19.4221    3.1574   27.3245    H 1 <0>  0.1500
  23   H3       17.4670    4.4723   25.4523    H 1 <0>  0.0000
  24   H4       15.9360    5.1243   26.0385    H 1 <0>  0.0000
  25   H5       15.9452    2.7007   24.8888    H 1 <0>  0.0000
  26   H6       16.0961    1.2310   27.2159    H 1 <0>  0.0000
  27   H7       16.3369    4.6212   28.2904    H 1 <0>  0.0000
  28   H8       18.8490    1.8078   26.4511    H 1 <0>  0.0000
  29   H9       17.8303    1.5497   25.0110    H 1 <0>  0.0000
  30  H10       22.7438    6.2225   28.4221    H 1 <0>  0.3999
  31  H11       21.9182    7.6930   28.8897    H 1 <0>  0.3999
  32  H12       14.1088    2.2924   26.1108    H 1 <0>  0.3999
@<TRIPOS>BOND
    1     1     2  1
    2     1     3  1
    3     2    11  1
    4     3    10  1
    5     3    12  1
    6     4    10  1
    7     4    11  1
    8     4    15  1
    9     5     6  1
   10     5     8  1
   11     6     7  1
   12     6    18  1
   13     7     9  1
   14     7    17  1
   15     8    11  1
   16     8    17  1
   17     9    19  1
   18    13    20  1
   19    14    20  1
   20    16    20  1
   21    19    20  1
   22     1    21  1
   23     2    22  1
   24     5    23  1
   25     5    24  1
   26     6    25  1
   27     7    26  1
   28     8    27  1
   29     9    28  1
   30     9    29  1
   31    12    30  1
   32    12    31  1
   33    18    32  1

@<TRIPOS>MOLECULE
MOL
   32   33    0    0    0
SMALL
USER_CHARGES


@<TRIPOS>ATOM
   1   C1       20.6917    4.7811   27.8124  C.2 1 <0> -0.1356
   2   C2       19.5018    4.2167   27.6164  C.2 1 <0> -0.0410
   3   C3       20.6842    6.1979   28.2613  C.2 1 <0>  0.4856
   4   C4       18.3407    6.2454   28.2426  C.2 1 <0>  0.8408
   5   C5       16.6243    4.2868   26.1286  C.3 1 <0>  0.0000
   6   C6       15.9291    2.9603   25.9262  C.3 1 <0>  0.2800
   7   C7       16.7283    2.0138   26.8111  C.3 1 <0>  0.2800
   8   C8       17.0782    4.2025   27.5768  C.3 1 <0>  0.5801
   9   C9       17.9106    1.3823   26.0876  C.3 1 <0>  0.2800
  10   N1       19.5679    6.8509   28.4522  N.2 1 <0> -0.6611
  11   N2       18.3107    4.8953   27.8144 N.am 1 <0> -0.4690
  12   N3       21.8931    6.8182   28.4755 N.pl3 1 <0> -0.8501
  13   O1       18.7676   -2.3524   26.1510  O.3 1 <0> -1.0332
  14   O2       20.3972   -0.3812   26.2318  O.3 1 <0> -1.0332
  15   O3       17.2985    6.8765   28.4270  O.2 1 <0> -0.5698
  16   O4       18.9314   -0.7527   24.1606  O.2 1 <0> -1.0332
  17   O5       17.2462    2.8131   27.8921  O.3 1 <0> -0.5601
  18   O6       14.5855    3.0454   26.3958  O.3 1 <0> -0.6802
  19   O7       17.9091   -0.0135   26.3390  O.3 1 <0> -0.5513
  20   P1       19.0969   -0.9440   25.6653  P.3 1 <0>  1.3711
  21   H1       21.6264    4.2580   27.6604    H 1 <0>  0.1500
  22   H2       19.4161    3.1864   27.2893    H 1 <0>  0.1500
  23   H3       17.4367    4.4596   25.4139    H 1 <0>  0.0000
  24   H4       15.9046    5.1069   26.0023    H 1 <0>  0.0000
  25   H5       15.9257    2.6680   24.8855    H 1 <0>  0.0000
  26   H6       16.1056    1.2314   27.2311    H 1 <0>  0.0000
  27   H7       16.3258    4.6377   28.2578    H 1 <0>  0.0000
  28   H8       18.8490    1.8078   26.4511    H 1 <0>  0.0000
  29   H9       17.8303    1.5497   25.0110    H 1 <0>  0.0000
  30  H10       22.7199    6.2934   28.3212    H 1 <0>  0.3999
  31  H11       21.8854    7.7633   28.7749    H 1 <0>  0.3999
  32  H12       14.1016    2.2613   26.1263    H 1 <0>  0.3999
@<TRIPOS>BOND
    1     1     2  1
    2     1     3  1
    3     2    11  1
    4     3    10  1
    5     3    12  1
    6     4    10  1
    7     4    11  1
    8     4    15  1
    9     5     6  1
   10     5     8  1
   11     6     7  1
   12     6    18  1
   13     7     9  1
   14     7    17  1
   15     8    11  1
   16     8    17  1
   17     9    19  1
   18    13    20  1
   19    14    20  1
   20    16    20  1
   21    19    20  1
   22     1    21  1
   23     2    22  1
   24     5    23  1
   25     5    24  1
   26     6    25  1
   27     7    26  1
   28     8    27  1
   29     9    28  1
   30     9    29  1
   31    12    30  1
   32    12    31  1
   33    18    32  1

@<TRIPOS>MOLECULE
MOL
   32   33    0    0    0
SMALL
USER_CHARGES


@<TRIPOS>ATOM
   1   C1       20.6756    4.8270   27.7460  C.2 1 <0> -0.1356
   2   C2       19.4891    4.2502   27.5663  C.2 1 <0> -0.0410
   3   C3       20.6595    6.2496   28.1757  C.2 1 <0>  0.4856
   4   C4       18.3156    6.2775   28.1735  C.2 1 <0>  0.8408
   5   C5       16.6004    4.2764   26.0987  C.3 1 <0>  0.0000
   6   C6       15.9149    2.9416   25.9193  C.3 1 <0>  0.2800
   7   C7       16.7283    2.0138   26.8111  C.3 1 <0>  0.2800
   8   C8       17.0654    4.2156   27.5446  C.3 1 <0>  0.5801
   9   C9       17.9106    1.3823   26.0876  C.3 1 <0>  0.2800
  10   N1       19.5392    6.8960   28.3659  N.2 1 <0> -0.6611
  11   N2       18.2938    4.9216   27.7638 N.am 1 <0> -0.4690
  12   N3       21.8646    6.8828   28.3727 N.pl3 1 <0> -0.8501
  13   O1       18.7676   -2.3524   26.1510  O.3 1 <0> -1.0332
  14   O2       20.3972   -0.3812   26.2318  O.3 1 <0> -1.0332
  15   O3       17.2695    6.9025   28.3569  O.2 1 <0> -0.5698
  16   O4       18.9314   -0.7527   24.1606  O.2 1 <0> -1.0332
  17   O5       17.2472    2.8319   27.8774  O.3 1 <0> -0.5601
  18   O6       14.5740    3.0220   26.3975  O.3 1 <0> -0.6802
  19   O7       17.9091   -0.0135   26.3390  O.3 1 <0> -0.5513
  20   P1       19.0969   -0.9440   25.6653  P.3 1 <0>  1.3711
  21   H1       21.6134    4.3096   27.5942    H 1 <0>  0.1500
  22   H2       19.4096    3.2149   27.2538    H 1 <0>  0.1500
  23   H3       17.4062    4.4462   25.3758    H 1 <0>  0.0000
  24   H4       15.8730    5.0887   25.9666    H 1 <0>  0.0000
  25   H5       15.9065    2.6352   24.8827    H 1 <0>  0.0000
  26   H6       16.1152    1.2320   27.2461    H 1 <0>  0.0000
  27   H7       16.3144    4.6537   28.2251    H 1 <0>  0.0000
  28   H8       18.8490    1.8078   26.4511    H 1 <0>  0.0000
  29   H9       17.8303    1.5497   25.0110    H 1 <0>  0.0000
  30  H10       22.6947    6.3627   28.2194    H 1 <0>  0.3999
  31  H11       21.8513    7.8317   28.6593    H 1 <0>  0.3999
  32  H12       14.0948    2.2303   26.1422    H 1 <0>  0.3999
@<TRIPOS>BOND
    1     1     2  1
    2     1     3  1
    3     2    11  1
    4     3    10  1
    5     3    12  1
    6     4    10  1
    7     4    11  1
    8     4    15  1
    9     5     6  1
   10     5     8  1
   11     6     7  1
   12     6    18  1
   13     7     9  1
   14     7    17  1
   15     8    11  1
   16     8    17  1
   17     9    19  1
   18    13    20  1
   19    14    20  1
   20    16    20  1
   21    19    20  1
   22     1    21  1
   23     2    22  1
   24     5    23  1
   25     5    24  1
   26     6    25  1
   27     7    26  1
   28     8    27  1
   29     9    28  1
   30     9    29  1
   31    12    30  1
   32    12    31  1
   33    18    32  1

@<TRIPOS>MOLECULE
MOL
   32   33    0    0    0
SMALL
USER_CHARGES


@<TRIPOS>ATOM
   1   C1       20.6586    4.8719   27.6791  C.2 1 <0> -0.1356
   2   C2       19.4757    4.2829   27.5159  C.2 1 <0> -0.0410
   3   C3       20.6337    6.3000   28.0897  C.2 1 <0>  0.4856
   4   C4       18.2898    6.3086   28.1041  C.2 1 <0>  0.8408
   5   C5       16.5765    4.2654   26.0692  C.3 1 <0>  0.0000
   6   C6       15.9009    2.9226   25.9128  C.3 1 <0>  0.2800
   7   C7       16.7283    2.0138   26.8111  C.3 1 <0>  0.2800
   8   C8       17.0523    4.2280   27.5123  C.3 1 <0>  0.5801
   9   C9       17.9106    1.3823   26.0876  C.3 1 <0>  0.2800
  10   N1       19.5095    6.9396   28.2792  N.2 1 <0> -0.6611
  11   N2       18.2763    4.9471   27.7130 N.am 1 <0> -0.4690
  12   N3       21.8349    6.9457   28.2693 N.pl3 1 <0> -0.8501
  13   O1       18.7676   -2.3524   26.1510  O.3 1 <0> -1.0332
  14   O2       20.3972   -0.3812   26.2318  O.3 1 <0> -1.0332
  15   O3       17.2398    6.9274   28.2867  O.2 1 <0> -0.5698
  16   O4       18.9314   -0.7527   24.1606  O.2 1 <0> -1.0332
  17   O5       17.2480    2.8506   27.8624  O.3 1 <0> -0.5601
  18   O6       14.5628    2.9985   26.3997  O.3 1 <0> -0.6802
  19   O7       17.9091   -0.0135   26.3390  O.3 1 <0> -0.5513
  20   P1       19.0969   -0.9440   25.6653  P.3 1 <0>  1.3711
  21   H1       21.5996    4.3602   27.5275    H 1 <0>  0.1500
  22   H2       19.4026    3.2429   27.2180    H 1 <0>  0.1500
  23   H3       17.3756    4.4320   25.3381    H 1 <0>  0.0000
  24   H4       15.8414    5.0698   25.9314    H 1 <0>  0.0000
  25   H5       15.8875    2.6021   24.8806    H 1 <0>  0.0000
  26   H6       16.1249    1.2330   27.2611    H 1 <0>  0.0000
  27   H7       16.3025    4.6692   28.1923    H 1 <0>  0.0000
  28   H8       18.8490    1.8078   26.4511    H 1 <0>  0.0000
  29   H9       17.8303    1.5497   25.0110    H 1 <0>  0.0000
  30  H10       22.6681    6.4305   28.1170    H 1 <0>  0.3999
  31  H11       21.8157    7.8983   28.5431    H 1 <0>  0.3999
  32  H12       14.0884    2.1995   26.1585    H 1 <0>  0.3999
@<TRIPOS>BOND
    1     1     2  1
    2     1     3  1
    3     2    11  1
    4     3    10  1
    5     3    12  1
    6     4    10  1
    7     4    11  1
    8     4    15  1
    9     5     6  1
   10     5     8  1
   11     6     7  1
   12     6    18  1
   13     7     9  1
   14     7    17  1
   15     8    11  1
   16     8    17  1
   17     9    19  1
   18    13    20  1
   19    14    20  1
   20    16    20  1
   21    19    20  1
   22     1    21  1
   23     2    22  1
   24     5    23  1
   25     5    24  1
   26     6    25  1
   27     7    26  1
   28     8    27  1
   29     9    28  1
   30     9    29  1
   31    12    30  1
   32    12    31  1
   33    18    32  1

@<TRIPOS>MOLECULE
MOL
   32   33    0    0    0
SMALL
USER_CHARGES


@<TRIPOS>ATOM
   1   C1       20.6408    4.9157   27.6117  C.2 1 <0> -0.1356
   2   C2       19.4617    4.3149   27.4651  C.2 1 <0> -0.0410
   3   C3       20.6069    6.3490   28.0031  C.2 1 <0>  0.4856
   4   C4       18.2631    6.3385   28.0346  C.2 1 <0>  0.8408
   5   C5       16.5524    4.2538   26.0399  C.3 1 <0>  0.0000
   6   C6       15.8869    2.9035   25.9067  C.3 1 <0>  0.2800
   7   C7       16.7283    2.0138   26.8111  C.3 1 <0>  0.2800
   8   C8       17.0388    4.2399   27.4799  C.3 1 <0>  0.5801
   9   C9       17.9106    1.3823   26.0876  C.3 1 <0>  0.2800
  10   N1       19.4788    6.9819   28.1922  N.2 1 <0> -0.6611
  11   N2       18.2582    4.9717   27.6619 N.am 1 <0> -0.4690
  12   N3       21.8040    7.0070   28.1652 N.pl3 1 <0> -0.8501
  13   O1       18.7676   -2.3524   26.1510  O.3 1 <0> -1.0332
  14   O2       20.3972   -0.3812   26.2318  O.3 1 <0> -1.0332
  15   O3       17.2094    6.9510   28.2164  O.2 1 <0> -0.5698
  16   O4       18.9314   -0.7527   24.1606  O.2 1 <0> -1.0332
  17   O5       17.2486    2.8690   27.8472  O.3 1 <0> -0.5601
  18   O6       14.5517    2.9749   26.4022  O.3 1 <0> -0.6802
  19   O7       17.9091   -0.0135   26.3390  O.3 1 <0> -0.5513
  20   P1       19.0969   -0.9440   25.6653  P.3 1 <0>  1.3711
  21   H1       21.5849    4.4098   27.4602    H 1 <0>  0.1500
  22   H2       19.3951    3.2703   27.1818    H 1 <0>  0.1500
  23   H3       17.3448    4.4170   25.3009    H 1 <0>  0.0000
  24   H4       15.8096    5.0502   25.8967    H 1 <0>  0.0000
  25   H5       15.8688    2.5689   24.8790    H 1 <0>  0.0000
  26   H6       16.1347    1.2342   27.2760    H 1 <0>  0.0000
  27   H7       16.2903    4.6841   28.1593    H 1 <0>  0.0000
  28   H8       18.8490    1.8078   26.4511    H 1 <0>  0.0000
  29   H9       17.8303    1.5497   25.0110    H 1 <0>  0.0000
  30  H10       22.6403    6.4966   28.0138    H 1 <0>  0.3999
  31  H11       21.7788    7.9630   28.4263    H 1 <0>  0.3999
  32  H12       14.0823    2.1688   26.1753    H 1 <0>  0.3999
@<TRIPOS>BOND
    1     1     2  1
    2     1     3  1
    3     2    11  1
    4     3    10  1
    5     3    12  1
    6     4    10  1
    7     4    11  1
    8     4    15  1
    9     5     6  1
   10     5     8  1
   11     6     7  1
   12     6    18  1
   13     7     9  1
   14     7    17  1
   15     8    11  1
   16     8    17  1
   17     9    19  1
   18    13    20  1
   19    14    20  1
   20    16    20  1
   21    19    20  1
   22     1    21  1
   23     2    22  1
   24     5    23  1
   25     5    24  1
   26     6    25  1
   27     7    26  1
   28     8    27  1
   29     9    28  1
   30     9    29  1
   31    12    30  1
   32    12    31  1
   33    18    32  1

@<TRIPOS>MOLECULE
MOL
   32   33    0    0    0
SMALL
USER_CHARGES


@<TRIPOS>ATOM
   1   C1       20.6221    4.9585   27.5438  C.2 1 <0> -0.1356
   2   C2       19.4470    4.3460   27.4140  C.2 1 <0> -0.0410
   3   C3       20.5791    6.3966   27.9161  C.2 1 <0>  0.4856
   4   C4       18.2358    6.3672   27.9648  C.2 1 <0>  0.8408
   5   C5       16.5282    4.2416   26.0110  C.3 1 <0>  0.0000
   6   C6       15.8730    2.8842   25.9009  C.3 1 <0>  0.2800
   7   C7       16.7283    2.0138   26.8111  C.3 1 <0>  0.2800
   8   C8       17.0251    4.2513   27.4474  C.3 1 <0>  0.5801
   9   C9       17.9106    1.3823   26.0876  C.3 1 <0>  0.2800
  10   N1       19.4471    7.0227   28.1048  N.2 1 <0> -0.6611
  11   N2       18.2395    4.9955   27.6107 N.am 1 <0> -0.4690
  12   N3       21.7718    7.0665   28.0605 N.pl3 1 <0> -0.8501
  13   O1       18.7676   -2.3524   26.1510  O.3 1 <0> -1.0332
  14   O2       20.3972   -0.3812   26.2318  O.3 1 <0> -1.0332
  15   O3       17.1783    6.9734   28.1460  O.2 1 <0> -0.5698
  16   O4       18.9314   -0.7527   24.1606  O.2 1 <0> -1.0332
  17   O5       17.2488    2.8873   27.8317  O.3 1 <0> -0.5601
  18   O6       14.5409    2.9513   26.4051  O.3 1 <0> -0.6802
  19   O7       17.9091   -0.0135   26.3390  O.3 1 <0> -0.5513
  20   P1       19.0969   -0.9440   25.6653  P.3 1 <0>  1.3711
  21   H1       21.5693    4.4583   27.3923    H 1 <0>  0.1500
  22   H2       19.3871    3.2971   27.1453    H 1 <0>  0.1500
  23   H3       17.3139    4.4013   25.2641    H 1 <0>  0.0000
  24   H4       15.7778    5.0298   25.8624    H 1 <0>  0.0000
  25   H5       15.8503    2.5355   24.8780    H 1 <0>  0.0000
  26   H6       16.1445    1.2357   27.2908    H 1 <0>  0.0000
  27   H7       16.2778    4.6984   28.1263    H 1 <0>  0.0000
  28   H8       18.8490    1.8078   26.4511    H 1 <0>  0.0000
  29   H9       17.8303    1.5497   25.0110    H 1 <0>  0.0000
  30  H10       22.6112    6.5611   27.9100    H 1 <0>  0.3999
  31  H11       21.7405    8.0258   28.3088    H 1 <0>  0.3999
  32  H12       14.0766    2.1384   26.1926    H 1 <0>  0.3999
@<TRIPOS>BOND
    1     1     2  1
    2     1     3  1
    3     2    11  1
    4     3    10  1
    5     3    12  1
    6     4    10  1
    7     4    11  1
    8     4    15  1
    9     5     6  1
   10     5     8  1
   11     6     7  1
   12     6    18  1
   13     7     9  1
   14     7    17  1
   15     8    11  1
   16     8    17  1
   17     9    19  1
   18    13    20  1
   19    14    20  1
   20    16    20  1
   21    19    20  1
   22     1    21  1
   23     2    22  1
   24     5    23  1
   25     5    24  1
   26     6    25  1
   27     7    26  1
   28     8    27  1
   29     9    28  1
   30     9    29  1
   31    12    30  1
   32    12    31  1
   33    18    32  1

@<TRIPOS>MOLECULE
MOL
   32   33    0    0    0
SMALL
USER_CHARGES


@<TRIPOS>ATOM
   1   C1       20.6026    5.0001   27.4756  C.2 1 <0> -0.1356
   2   C2       19.4317    4.3763   27.3626  C.2 1 <0> -0.0410
   3   C3       20.5502    6.4428   27.8286  C.2 1 <0>  0.4856
   4   C4       18.2077    6.3947   27.8948  C.2 1 <0>  0.8408
   5   C5       16.5039    4.2288   25.9825  C.3 1 <0>  0.0000
   6   C6       15.8593    2.8647   25.8955  C.3 1 <0>  0.2800
   7   C7       16.7283    2.0138   26.8111  C.3 1 <0>  0.2800
   8   C8       17.0109    4.2621   27.4150  C.3 1 <0>  0.5801
   9   C9       17.9106    1.3823   26.0876  C.3 1 <0>  0.2800
  10   N1       19.4145    7.0620   28.0171  N.2 1 <0> -0.6611
  11   N2       18.2203    5.0185   27.5593 N.am 1 <0> -0.4690
  12   N3       21.7383    7.1244   27.9553 N.pl3 1 <0> -0.8501
  13   O1       18.7676   -2.3524   26.1510  O.3 1 <0> -1.0332
  14   O2       20.3972   -0.3812   26.2318  O.3 1 <0> -1.0332
  15   O3       17.1465    6.9946   28.0755  O.2 1 <0> -0.5698
  16   O4       18.9314   -0.7527   24.1606  O.2 1 <0> -1.0332
  17   O5       17.2489    2.9053   27.8160  O.3 1 <0> -0.5601
  18   O6       14.5303    2.9277   26.4084  O.3 1 <0> -0.6802
  19   O7       17.9091   -0.0135   26.3390  O.3 1 <0> -0.5513
  20   P1       19.0969   -0.9440   25.6653  P.3 1 <0>  1.3711
  21   H1       21.5528    4.5058   27.3239    H 1 <0>  0.1500
  22   H2       19.3787    3.3234   27.1086    H 1 <0>  0.1500
  23   H3       17.2828    4.3848   25.2278    H 1 <0>  0.0000
  24   H4       15.7459    5.0087   25.8287    H 1 <0>  0.0000
  25   H5       15.8322    2.5020   24.8775    H 1 <0>  0.0000
  26   H6       16.1545    1.2375   27.3055    H 1 <0>  0.0000
  27   H7       16.2649    4.7122   28.0931    H 1 <0>  0.0000
  28   H8       18.8490    1.8078   26.4511    H 1 <0>  0.0000
  29   H9       17.8303    1.5497   25.0110    H 1 <0>  0.0000
  30  H10       22.5808    6.6239   27.8055    H 1 <0>  0.3999
  31  H11       21.7008    8.0867   28.1908    H 1 <0>  0.3999
  32  H12       14.0713    2.1081   26.2103    H 1 <0>  0.3999
@<TRIPOS>BOND
    1     1     2  1
    2     1     3  1
    3     2    11  1
    4     3    10  1
    5     3    12  1
    6     4    10  1
    7     4    11  1
    8     4    15  1
    9     5     6  1
   10     5     8  1
   11     6     7  1
   12     6    18  1
   13     7     9  1
   14     7    17  1
   15     8    11  1
   16     8    17  1
   17     9    19  1
   18    13    20  1
   19    14    20  1
   20    16    20  1
   21    19    20  1
   22     1    21  1
   23     2    22  1
   24     5    23  1
   25     5    24  1
   26     6    25  1
   27     7    26  1
   28     8    27  1
   29     9    28  1
   30     9    29  1
   31    12    30  1
   32    12    31  1
   33    18    32  1

@<TRIPOS>MOLECULE
MOL
   32   33    0    0    0
SMALL
USER_CHARGES


@<TRIPOS>ATOM
   1   C1       20.5822    5.0407   27.4069  C.2 1 <0> -0.1356
   2   C2       19.4158    4.4057   27.3108  C.2 1 <0> -0.0410
   3   C3       20.5204    6.4876   27.7408  C.2 1 <0>  0.4856
   4   C4       18.1788    6.4211   27.8247  C.2 1 <0>  0.8408
   5   C5       16.4794    4.2154   25.9543  C.3 1 <0>  0.0000
   6   C6       15.8457    2.8450   25.8904  C.3 1 <0>  0.2800
   7   C7       16.7283    2.0138   26.8111  C.3 1 <0>  0.2800
   8   C8       16.9965    4.2723   27.3824  C.3 1 <0>  0.5801
   9   C9       17.9106    1.3823   26.0876  C.3 1 <0>  0.2800
  10   N1       19.3809    7.0999   27.9292  N.2 1 <0> -0.6611
  11   N2       18.2005    5.0405   27.5077 N.am 1 <0> -0.4690
  12   N3       21.7036    7.1806   27.8496 N.pl3 1 <0> -0.8501
  13   O1       18.7676   -2.3524   26.1510  O.3 1 <0> -1.0332
  14   O2       20.3972   -0.3812   26.2318  O.3 1 <0> -1.0332
  15   O3       17.1140    7.0146   28.0050  O.2 1 <0> -0.5698
  16   O4       18.9314   -0.7527   24.1606  O.2 1 <0> -1.0332
  17   O5       17.2486    2.9231   27.8000  O.3 1 <0> -0.5601
  18   O6       14.5199    2.9040   26.4122  O.3 1 <0> -0.6802
  19   O7       17.9091   -0.0135   26.3390  O.3 1 <0> -0.5513
  20   P1       19.0969   -0.9440   25.6653  P.3 1 <0>  1.3711
  21   H1       21.5354    4.5522   27.2550    H 1 <0>  0.1500
  22   H2       19.3697    3.3491   27.0715    H 1 <0>  0.1500
  23   H3       17.2517    4.3676   25.1918    H 1 <0>  0.0000
  24   H4       15.7139    4.9869   25.7955    H 1 <0>  0.0000
  25   H5       15.8143    2.4683   24.8777    H 1 <0>  0.0000
  26   H6       16.1646    1.2396   27.3202    H 1 <0>  0.0000
  27   H7       16.2516    4.7255   28.0599    H 1 <0>  0.0000
  28   H8       18.8490    1.8078   26.4511    H 1 <0>  0.0000
  29   H9       17.8303    1.5497   25.0110    H 1 <0>  0.0000
  30  H10       22.5492    6.6850   27.7004    H 1 <0>  0.3999
  31  H11       21.6597    8.1456   28.0723    H 1 <0>  0.3999
  32  H12       14.0663    2.0781   26.2285    H 1 <0>  0.3999
@<TRIPOS>BOND
    1     1     2  1
    2     1     3  1
    3     2    11  1
    4     3    10  1
    5     3    12  1
    6     4    10  1
    7     4    11  1
    8     4    15  1
    9     5     6  1
   10     5     8  1
   11     6     7  1
   12     6    18  1
   13     7     9  1
   14     7    17  1
   15     8    11  1
   16     8    17  1
   17     9    19  1
   18    13    20  1
   19    14    20  1
   20    16    20  1
   21    19    20  1
   22     1    21  1
   23     2    22  1
   24     5    23  1
   25     5    24  1
   26     6    25  1
   27     7    26  1
   28     8    27  1
   29     9    28  1
   30     9    29  1
   31    12    30  1
   32    12    31  1
   33    18    32  1

@<TRIPOS>MOLECULE
MOL
   32   33    0    0    0
SMALL
USER_CHARGES


@<TRIPOS>ATOM
   1   C1       20.5610    5.0802   27.3378  C.2 1 <0> -0.1356
   2   C2       19.3993    4.4344   27.2589  C.2 1 <0> -0.0410
   3   C3       20.4895    6.5309   27.6525  C.2 1 <0>  0.4856
   4   C4       18.1493    6.4462   27.7544  C.2 1 <0>  0.8408
   5   C5       16.4550    4.2015   25.9264  C.3 1 <0>  0.0000
   6   C6       15.8322    2.8251   25.8857  C.3 1 <0>  0.2800
   7   C7       16.7283    2.0138   26.8111  C.3 1 <0>  0.2800
   8   C8       16.9818    4.2820   27.3499  C.3 1 <0>  0.5801
   9   C9       17.9106    1.3823   26.0876  C.3 1 <0>  0.2800
  10   N1       19.3463    7.1363   27.8410  N.2 1 <0> -0.6611
  11   N2       18.1802    5.0617   27.4560 N.am 1 <0> -0.4690
  12   N3       21.6677    7.2351   27.7433 N.pl3 1 <0> -0.8501
  13   O1       18.7676   -2.3524   26.1510  O.3 1 <0> -1.0332
  14   O2       20.3972   -0.3812   26.2318  O.3 1 <0> -1.0332
  15   O3       17.0809    7.0334   27.9344  O.2 1 <0> -0.5698
  16   O4       18.9314   -0.7527   24.1606  O.2 1 <0> -1.0332
  17   O5       17.2481    2.9407   27.7838  O.3 1 <0> -0.5601
  18   O6       14.5098    2.8802   26.4163  O.3 1 <0> -0.6802
  19   O7       17.9091   -0.0135   26.3390  O.3 1 <0> -0.5513
  20   P1       19.0969   -0.9440   25.6653  P.3 1 <0>  1.3711
  21   H1       21.5171    4.5975   27.1855    H 1 <0>  0.1500
  22   H2       19.3603    3.3743   27.0341    H 1 <0>  0.1500
  23   H3       17.2204    4.3496   25.1564    H 1 <0>  0.0000
  24   H4       15.6819    4.9644   25.7628    H 1 <0>  0.0000
  25   H5       15.7967    2.4345   24.8784    H 1 <0>  0.0000
  26   H6       16.1747    1.2420   27.3347    H 1 <0>  0.0000
  27   H7       16.2380    4.7382   28.0265    H 1 <0>  0.0000
  28   H8       18.8490    1.8078   26.4511    H 1 <0>  0.0000
  29   H9       17.8303    1.5497   25.0110    H 1 <0>  0.0000
  30  H10       22.5163    6.7445   27.5947    H 1 <0>  0.3999
  31  H11       21.6174    8.2026   27.9533    H 1 <0>  0.3999
  32  H12       14.0618    2.0482   26.2471    H 1 <0>  0.3999
@<TRIPOS>BOND
    1     1     2  1
    2     1     3  1
    3     2    11  1
    4     3    10  1
    5     3    12  1
    6     4    10  1
    7     4    11  1
    8     4    15  1
    9     5     6  1
   10     5     8  1
   11     6     7  1
   12     6    18  1
   13     7     9  1
   14     7    17  1
   15     8    11  1
   16     8    17  1
   17     9    19  1
   18    13    20  1
   19    14    20  1
   20    16    20  1
   21    19    20  1
   22     1    21  1
   23     2    22  1
   24     5    23  1
   25     5    24  1
   26     6    25  1
   27     7    26  1
   28     8    27  1
   29     9    28  1
   30     9    29  1
   31    12    30  1
   32    12    31  1
   33    18    32  1

@<TRIPOS>MOLECULE
MOL
   32   33    0    0    0
SMALL
USER_CHARGES


@<TRIPOS>ATOM
   1   C1       20.5390    5.1185   27.2683  C.2 1 <0> -0.1356
   2   C2       19.3822    4.4621   27.2066  C.2 1 <0> -0.0410
   3   C3       20.4577    6.5727   27.5640  C.2 1 <0>  0.4856
   4   C4       18.1190    6.4702   27.6840  C.2 1 <0>  0.8408
   5   C5       16.4304    4.1869   25.8989  C.3 1 <0>  0.0000
   6   C6       15.8188    2.8050   25.8814  C.3 1 <0>  0.2800
   7   C7       16.7283    2.0138   26.8111  C.3 1 <0>  0.2800
   8   C8       16.9667    4.2911   27.3173  C.3 1 <0>  0.5801
   9   C9       17.9106    1.3823   26.0876  C.3 1 <0>  0.2800
  10   N1       19.3108    7.1712   27.7525  N.2 1 <0> -0.6611
  11   N2       18.1593    5.0821   27.4041 N.am 1 <0> -0.4690
  12   N3       21.6305    7.2878   27.6366 N.pl3 1 <0> -0.8501
  13   O1       18.7676   -2.3524   26.1510  O.3 1 <0> -1.0332
  14   O2       20.3972   -0.3812   26.2318  O.3 1 <0> -1.0332
  15   O3       17.0471    7.0509   27.8639  O.2 1 <0> -0.5698
  16   O4       18.9314   -0.7527   24.1606  O.2 1 <0> -1.0332
  17   O5       17.2473    2.9581   27.7674  O.3 1 <0> -0.5601
  18   O6       14.4999    2.8565   26.4208  O.3 1 <0> -0.6802
  19   O7       17.9091   -0.0135   26.3390  O.3 1 <0> -0.5513
  20   P1       19.0969   -0.9440   25.6653  P.3 1 <0>  1.3711
  21   H1       21.4980    4.6417   27.1157    H 1 <0>  0.1500
  22   H2       19.3504    3.3988   26.9965    H 1 <0>  0.1500
  23   H3       17.1890    4.3309   25.1214    H 1 <0>  0.0000
  24   H4       15.6498    4.9412   25.7307    H 1 <0>  0.0000
  25   H5       15.7793    2.4005   24.8798    H 1 <0>  0.0000
  26   H6       16.1849    1.2446   27.3491    H 1 <0>  0.0000
  27   H7       16.2240    4.7503   27.9931    H 1 <0>  0.0000
  28   H8       18.8490    1.8078   26.4511    H 1 <0>  0.0000
  29   H9       17.8303    1.5497   25.0110    H 1 <0>  0.0000
  30  H10       22.4821    6.8022   27.4885    H 1 <0>  0.3999
  31  H11       21.5737    8.2576   27.8339    H 1 <0>  0.3999
  32  H12       14.0576    2.0186   26.2661    H 1 <0>  0.3999
@<TRIPOS>BOND
    1     1     2  1
    2     1     3  1
    3     2    11  1
    4     3    10  1
    5     3    12  1
    6     4    10  1
    7     4    11  1
    8     4    15  1
    9     5     6  1
   10     5     8  1
   11     6     7  1
   12     6    18  1
   13     7     9  1
   14     7    17  1
   15     8    11  1
   16     8    17  1
   17     9    19  1
   18    13    20  1
   19    14    20  1
   20    16    20  1
   21    19    20  1
   22     1    21  1
   23     2    22  1
   24     5    23  1
   25     5    24  1
   26     6    25  1
   27     7    26  1
   28     8    27  1
   29     9    28  1
   30     9    29  1
   31    12    30  1
   32    12    31  1
   33    18    32  1

@<TRIPOS>MOLECULE
MOL
   32   33    0    0    0
SMALL
USER_CHARGES


@<TRIPOS>ATOM
   1   C1       20.5162    5.1557   27.1985  C.2 1 <0> -0.1356
   2   C2       19.3644    4.4891   27.1541  C.2 1 <0> -0.0410
   3   C3       20.4248    6.6131   27.4751  C.2 1 <0>  0.4856
   4   C4       18.0880    6.4929   27.6135  C.2 1 <0>  0.8408
   5   C5       16.4057    4.1718   25.8718  C.3 1 <0>  0.0000
   6   C6       15.8056    2.7848   25.8774  C.3 1 <0>  0.2800
   7   C7       16.7283    2.0138   26.8111  C.3 1 <0>  0.2800
   8   C8       16.9513    4.2997   27.2847  C.3 1 <0>  0.5801
   9   C9       17.9106    1.3823   26.0876  C.3 1 <0>  0.2800
  10   N1       19.2744    7.2046   27.6639  N.2 1 <0> -0.6611
  11   N2       18.1379    5.1015   27.3521 N.am 1 <0> -0.4690
  12   N3       21.5922    7.3387   27.5295 N.pl3 1 <0> -0.8501
  13   O1       18.7676   -2.3524   26.1510  O.3 1 <0> -1.0332
  14   O2       20.3972   -0.3812   26.2318  O.3 1 <0> -1.0332
  15   O3       17.0126    7.0672   27.7934  O.2 1 <0> -0.5698
  16   O4       18.9314   -0.7527   24.1606  O.2 1 <0> -1.0332
  17   O5       17.2463    2.9753   27.7507  O.3 1 <0> -0.5601
  18   O6       14.4902    2.8327   26.4257  O.3 1 <0> -0.6802
  19   O7       17.9091   -0.0135   26.3390  O.3 1 <0> -0.5513
  20   P1       19.0969   -0.9440   25.6653  P.3 1 <0>  1.3711
  21   H1       21.4780    4.6848   27.0453    H 1 <0>  0.1500
  22   H2       19.3400    3.4228   26.9587    H 1 <0>  0.1500
  23   H3       17.1575    4.3115   25.0870    H 1 <0>  0.0000
  24   H4       15.6177    4.9173   25.6991    H 1 <0>  0.0000
  25   H5       15.7623    2.3664   24.8817    H 1 <0>  0.0000
  26   H6       16.1952    1.2475   27.3634    H 1 <0>  0.0000
  27   H7       16.2097    4.7618   27.9597    H 1 <0>  0.0000
  28   H8       18.8490    1.8078   26.4511    H 1 <0>  0.0000
  29   H9       17.8303    1.5497   25.0110    H 1 <0>  0.0000
  30  H10       22.4467    6.8582   27.3817    H 1 <0>  0.3999
  31  H11       21.5286    8.3107   27.7141    H 1 <0>  0.3999
  32  H12       14.0538    1.9892   26.2856    H 1 <0>  0.3999
@<TRIPOS>BOND
    1     1     2  1
    2     1     3  1
    3     2    11  1
    4     3    10  1
    5     3    12  1
    6     4    10  1
    7     4    11  1
    8     4    15  1
    9     5     6  1
   10     5     8  1
   11     6     7  1
   12     6    18  1
   13     7     9  1
   14     7    17  1
   15     8    11  1
   16     8    17  1
   17     9    19  1
   18    13    20  1
   19    14    20  1
   20    16    20  1
   21    19    20  1
   22     1    21  1
   23     2    22  1
   24     5    23  1
   25     5    24  1
   26     6    25  1
   27     7    26  1
   28     8    27  1
   29     9    28  1
   30     9    29  1
   31    12    30  1
   32    12    31  1
   33    18    32  1

@<TRIPOS>MOLECULE
MOL
   32   33    0    0    0
SMALL
USER_CHARGES


@<TRIPOS>ATOM
   1   C1       20.4925    5.1918   27.1284  C.2 1 <0> -0.1356
   2   C2       19.3461    4.5151   27.1014  C.2 1 <0> -0.0410
   3   C3       20.3910    6.6520   27.3859  C.2 1 <0>  0.4856
   4   C4       18.0563    6.5145   27.5430  C.2 1 <0>  0.8408
   5   C5       16.3810    4.1561   25.8451  C.3 1 <0>  0.0000
   6   C6       15.7925    2.7644   25.8738  C.3 1 <0>  0.2800
   7   C7       16.7283    2.0138   26.8111  C.3 1 <0>  0.2800
   8   C8       16.9357    4.3077   27.2522  C.3 1 <0>  0.5801
   9   C9       17.9106    1.3823   26.0876  C.3 1 <0>  0.2800
  10   N1       19.2371    7.2365   27.5750  N.2 1 <0> -0.6611
  11   N2       18.1160    5.1201   27.3001 N.am 1 <0> -0.4690
  12   N3       21.5526    7.3879   27.4220 N.pl3 1 <0> -0.8501
  13   O1       18.7676   -2.3524   26.1510  O.3 1 <0> -1.0332
  14   O2       20.3972   -0.3812   26.2318  O.3 1 <0> -1.0332
  15   O3       16.9775    7.0822   27.7229  O.2 1 <0> -0.5698
  16   O4       18.9314   -0.7527   24.1606  O.2 1 <0> -1.0332
  17   O5       17.2450    2.9922   27.7339  O.3 1 <0> -0.5601
  18   O6       14.4807    2.8089   26.4310  O.3 1 <0> -0.6802
  19   O7       17.9091   -0.0135   26.3390  O.3 1 <0> -0.5513
  20   P1       19.0969   -0.9440   25.6653  P.3 1 <0>  1.3711
  21   H1       21.4571    4.7268   26.9745    H 1 <0>  0.1500
  22   H2       19.3292    3.4461   26.9206    H 1 <0>  0.1500
  23   H3       17.1260    4.2913   25.0530    H 1 <0>  0.0000
  24   H4       15.5856    4.8926   25.6681    H 1 <0>  0.0000
  25   H5       15.7456    2.3322   24.8842    H 1 <0>  0.0000
  26   H6       16.2056    1.2507   27.3776    H 1 <0>  0.0000
  27   H7       16.1951    4.7728   27.9262    H 1 <0>  0.0000
  28   H8       18.8490    1.8078   26.4511    H 1 <0>  0.0000
  29   H9       17.8303    1.5497   25.0110    H 1 <0>  0.0000
  30  H10       22.4100    6.9125   27.2745    H 1 <0>  0.3999
  31  H11       21.4823    8.3617   27.5938    H 1 <0>  0.3999
  32  H12       14.0504    1.9600   26.3055    H 1 <0>  0.3999
@<TRIPOS>BOND
    1     1     2  1
    2     1     3  1
    3     2    11  1
    4     3    10  1
    5     3    12  1
    6     4    10  1
    7     4    11  1
    8     4    15  1
    9     5     6  1
   10     5     8  1
   11     6     7  1
   12     6    18  1
   13     7     9  1
   14     7    17  1
   15     8    11  1
   16     8    17  1
   17     9    19  1
   18    13    20  1
   19    14    20  1
   20    16    20  1
   21    19    20  1
   22     1    21  1
   23     2    22  1
   24     5    23  1
   25     5    24  1
   26     6    25  1
   27     7    26  1
   28     8    27  1
   29     9    28  1
   30     9    29  1
   31    12    30  1
   32    12    31  1
   33    18    32  1

@<TRIPOS>MOLECULE
MOL
   32   33    0    0    0
SMALL
USER_CHARGES


@<TRIPOS>ATOM
   1   C1       20.4681    5.2267   27.0579  C.2 1 <0> -0.1356
   2   C2       19.3272    4.5403   27.0485  C.2 1 <0> -0.0410
   3   C3       20.3562    6.6894   27.2964  C.2 1 <0>  0.4856
   4   C4       18.0240    6.5348   27.4724  C.2 1 <0>  0.8408
   5   C5       16.3562    4.1399   25.8188  C.3 1 <0>  0.0000
   6   C6       15.7796    2.7439   25.8706  C.3 1 <0>  0.2800
   7   C7       16.7283    2.0138   26.8111  C.3 1 <0>  0.2800
   8   C8       16.9197    4.3151   27.2196  C.3 1 <0>  0.5801
   9   C9       17.9106    1.3823   26.0876  C.3 1 <0>  0.2800
  10   N1       19.1989    7.2669   27.4860  N.2 1 <0> -0.6611
  11   N2       18.0935    5.1378   27.2479 N.am 1 <0> -0.4690
  12   N3       21.5119    7.4352   27.3141 N.pl3 1 <0> -0.8501
  13   O1       18.7676   -2.3524   26.1510  O.3 1 <0> -1.0332
  14   O2       20.3972   -0.3812   26.2318  O.3 1 <0> -1.0332
  15   O3       16.9418    7.0960   27.6524  O.2 1 <0> -0.5698
  16   O4       18.9314   -0.7527   24.1606  O.2 1 <0> -1.0332
  17   O5       17.2434    3.0088   27.7168  O.3 1 <0> -0.5601
  18   O6       14.4715    2.7852   26.4367  O.3 1 <0> -0.6802
  19   O7       17.9091   -0.0135   26.3390  O.3 1 <0> -0.5513
  20   P1       19.0969   -0.9440   25.6653  P.3 1 <0>  1.3711
  21   H1       21.4354    4.7677   26.9034    H 1 <0>  0.1500
  22   H2       19.3179    3.4688   26.8822    H 1 <0>  0.1500
  23   H3       17.0943    4.2704   25.0195    H 1 <0>  0.0000
  24   H4       15.5535    4.8673   25.6377    H 1 <0>  0.0000
  25   H5       15.7291    2.2979   24.8873    H 1 <0>  0.0000
  26   H6       16.2161    1.2542   27.3916    H 1 <0>  0.0000
  27   H7       16.1801    4.7832   27.8927    H 1 <0>  0.0000
  28   H8       18.8490    1.8078   26.4511    H 1 <0>  0.0000
  29   H9       17.8303    1.5497   25.0110    H 1 <0>  0.0000
  30  H10       22.3722    6.9650   27.1668    H 1 <0>  0.3999
  31  H11       21.4347    8.4107   27.4733    H 1 <0>  0.3999
  32  H12       14.0474    1.9311   26.3258    H 1 <0>  0.3999
@<TRIPOS>BOND
    1     1     2  1
    2     1     3  1
    3     2    11  1
    4     3    10  1
    5     3    12  1
    6     4    10  1
    7     4    11  1
    8     4    15  1
    9     5     6  1
   10     5     8  1
   11     6     7  1
   12     6    18  1
   13     7     9  1
   14     7    17  1
   15     8    11  1
   16     8    17  1
   17     9    19  1
   18    13    20  1
   19    14    20  1
   20    16    20  1
   21    19    20  1
   22     1    21  1
   23     2    22  1
   24     5    23  1
   25     5    24  1
   26     6    25  1
   27     7    26  1
   28     8    27  1
   29     9    28  1
   30     9    29  1
   31    12    30  1
   32    12    31  1
   33    18    32  1

@<TRIPOS>MOLECULE
MOL
   32   33    0    0    0
SMALL
USER_CHARGES


@<TRIPOS>ATOM
   1   C1       20.4428    5.2605   26.9872  C.2 1 <0> -0.1356
   2   C2       19.3076    4.5647   26.9953  C.2 1 <0> -0.0410
   3   C3       20.3205    6.7253   27.2067  C.2 1 <0>  0.4856
   4   C4       17.9910    6.5539   27.4017  C.2 1 <0>  0.8408
   5   C5       16.3314    4.1231   25.7929  C.3 1 <0>  0.0000
   6   C6       15.7668    2.7232   25.8678  C.3 1 <0>  0.2800
   7   C7       16.7283    2.0138   26.8111  C.3 1 <0>  0.2800
   8   C8       16.9034    4.3219   27.1870  C.3 1 <0>  0.5801
   9   C9       17.9106    1.3823   26.0876  C.3 1 <0>  0.2800
  10   N1       19.1598    7.2957   27.3969  N.2 1 <0> -0.6611
  11   N2       18.0705    5.1546   27.1957 N.am 1 <0> -0.4690
  12   N3       21.4700    7.4808   27.2059 N.pl3 1 <0> -0.8501
  13   O1       18.7676   -2.3524   26.1510  O.3 1 <0> -1.0332
  14   O2       20.3972   -0.3812   26.2318  O.3 1 <0> -1.0332
  15   O3       16.9054    7.1085   27.5821  O.2 1 <0> -0.5698
  16   O4       18.9314   -0.7527   24.1606  O.2 1 <0> -1.0332
  17   O5       17.2416    3.0252   27.6994  O.3 1 <0> -0.5601
  18   O6       14.4625    2.7614   26.4428  O.3 1 <0> -0.6802
  19   O7       17.9091   -0.0135   26.3390  O.3 1 <0> -0.5513
  20   P1       19.0969   -0.9440   25.6653  P.3 1 <0>  1.3711
  21   H1       21.4128    4.8074   26.8318    H 1 <0>  0.1500
  22   H2       19.3061    3.4910   26.8437    H 1 <0>  0.1500
  23   H3       17.0626    4.2488   24.9865    H 1 <0>  0.0000
  24   H4       15.5213    4.8414   25.6078    H 1 <0>  0.0000
  25   H5       15.7130    2.2635   24.8910    H 1 <0>  0.0000
  26   H6       16.2266    1.2580   27.4055    H 1 <0>  0.0000
  27   H7       16.1648    4.7930   27.8591    H 1 <0>  0.0000
  28   H8       18.8490    1.8078   26.4511    H 1 <0>  0.0000
  29   H9       17.8303    1.5497   25.0110    H 1 <0>  0.0000
  30  H10       22.3331    7.0157   27.0586    H 1 <0>  0.3999
  31  H11       21.3859    8.4577   27.3524    H 1 <0>  0.3999
  32  H12       14.0447    1.9024   26.3466    H 1 <0>  0.3999
@<TRIPOS>BOND
    1     1     2  1
    2     1     3  1
    3     2    11  1
    4     3    10  1
    5     3    12  1
    6     4    10  1
    7     4    11  1
    8     4    15  1
    9     5     6  1
   10     5     8  1
   11     6     7  1
   12     6    18  1
   13     7     9  1
   14     7    17  1
   15     8    11  1
   16     8    17  1
   17     9    19  1
   18    13    20  1
   19    14    20  1
   20    16    20  1
   21    19    20  1
   22     1    21  1
   23     2    22  1
   24     5    23  1
   25     5    24  1
   26     6    25  1
   27     7    26  1
   28     8    27  1
   29     9    28  1
   30     9    29  1
   31    12    30  1
   32    12    31  1
   33    18    32  1

@<TRIPOS>MOLECULE
MOL
   32   33    0    0    0
SMALL
USER_CHARGES


@<TRIPOS>ATOM
   1   C1       20.4168    5.2931   26.9162  C.2 1 <0> -0.1356
   2   C2       19.2875    4.5881   26.9420  C.2 1 <0> -0.0410
   3   C3       20.2838    6.7597   27.1168  C.2 1 <0>  0.4856
   4   C4       17.9573    6.5717   27.3311  C.2 1 <0>  0.8408
   5   C5       16.3065    4.1057   25.7674  C.3 1 <0>  0.0000
   6   C6       15.7542    2.7024   25.8653  C.3 1 <0>  0.2800
   7   C7       16.7283    2.0138   26.8111  C.3 1 <0>  0.2800
   8   C8       16.8869    4.3282   27.1545  C.3 1 <0>  0.5801
   9   C9       17.9106    1.3823   26.0876  C.3 1 <0>  0.2800
  10   N1       19.1198    7.3231   27.3078  N.2 1 <0> -0.6611
  11   N2       18.0470    5.1705   27.1434 N.am 1 <0> -0.4690
  12   N3       21.4270    7.5245   27.0974 N.pl3 1 <0> -0.8501
  13   O1       18.7676   -2.3524   26.1510  O.3 1 <0> -1.0332
  14   O2       20.3972   -0.3812   26.2318  O.3 1 <0> -1.0332
  15   O3       16.8685    7.1198   27.5118  O.2 1 <0> -0.5698
  16   O4       18.9314   -0.7527   24.1606  O.2 1 <0> -1.0332
  17   O5       17.2395    3.0414   27.6819  O.3 1 <0> -0.5601
  18   O6       14.4538    2.7376   26.4492  O.3 1 <0> -0.6802
  19   O7       17.9091   -0.0135   26.3390  O.3 1 <0> -0.5513
  20   P1       19.0969   -0.9440   25.6653  P.3 1 <0>  1.3711
  21   H1       21.3893    4.8459   26.7599    H 1 <0>  0.1500
  22   H2       19.2938    3.5125   26.8049    H 1 <0>  0.1500
  23   H3       17.0309    4.2265   24.9541    H 1 <0>  0.0000
  24   H4       15.4892    4.8147   25.5785    H 1 <0>  0.0000
  25   H5       15.6972    2.2290   24.8952    H 1 <0>  0.0000
  26   H6       16.2372    1.2620   27.4193    H 1 <0>  0.0000
  27   H7       16.1492    4.8022   27.8255    H 1 <0>  0.0000
  28   H8       18.8490    1.8078   26.4511    H 1 <0>  0.0000
  29   H9       17.8303    1.5497   25.0110    H 1 <0>  0.0000
  30  H10       22.2928    7.0646   26.9501    H 1 <0>  0.3999
  31  H11       21.3357    8.5026   27.2313    H 1 <0>  0.3999
  32  H12       14.0425    1.8740   26.3677    H 1 <0>  0.3999
@<TRIPOS>BOND
    1     1     2  1
    2     1     3  1
    3     2    11  1
    4     3    10  1
    5     3    12  1
    6     4    10  1
    7     4    11  1
    8     4    15  1
    9     5     6  1
   10     5     8  1
   11     6     7  1
   12     6    18  1
   13     7     9  1
   14     7    17  1
   15     8    11  1
   16     8    17  1
   17     9    19  1
   18    13    20  1
   19    14    20  1
   20    16    20  1
   21    19    20  1
   22     1    21  1
   23     2    22  1
   24     5    23  1
   25     5    24  1
   26     6    25  1
   27     7    26  1
   28     8    27  1
   29     9    28  1
   30     9    29  1
   31    12    30  1
   32    12    31  1
   33    18    32  1

@<TRIPOS>MOLECULE
MOL
   32   33    0    0    0
SMALL
USER_CHARGES


@<TRIPOS>ATOM
   1   C1       20.3900    5.3245   26.8450  C.2 1 <0> -0.1356
   2   C2       19.2668    4.6106   26.8886  C.2 1 <0> -0.0410
   3   C3       20.2462    6.7925   27.0267  C.2 1 <0>  0.4856
   4   C4       17.9229    6.5883   27.2605  C.2 1 <0>  0.8408
   5   C5       16.2816    4.0878   25.7424  C.3 1 <0>  0.0000
   6   C6       15.7417    2.6815   25.8632  C.3 1 <0>  0.2800
   7   C7       16.7283    2.0138   26.8111  C.3 1 <0>  0.2800
   8   C8       16.8700    4.3338   27.1220  C.3 1 <0>  0.5801
   9   C9       17.9106    1.3823   26.0876  C.3 1 <0>  0.2800
  10   N1       19.0789    7.3488   27.2185  N.2 1 <0> -0.6611
  11   N2       18.0230    5.1854   27.0911 N.am 1 <0> -0.4690
  12   N3       21.3828    7.5665   26.9886 N.pl3 1 <0> -0.8501
  13   O1       18.7676   -2.3524   26.1510  O.3 1 <0> -1.0332
  14   O2       20.3972   -0.3812   26.2318  O.3 1 <0> -1.0332
  15   O3       16.8309    7.1299   27.4417  O.2 1 <0> -0.5698
  16   O4       18.9314   -0.7527   24.1606  O.2 1 <0> -1.0332
  17   O5       17.2371    3.0573   27.6642  O.3 1 <0> -0.5601
  18   O6       14.4453    2.7139   26.4561  O.3 1 <0> -0.6802
  19   O7       17.9091   -0.0135   26.3390  O.3 1 <0> -0.5513
  20   P1       19.0969   -0.9440   25.6653  P.3 1 <0>  1.3711
  21   H1       21.3651    4.8833   26.6876    H 1 <0>  0.1500
  22   H2       19.2811    3.5333   26.7659    H 1 <0>  0.1500
  23   H3       16.9991    4.2035   24.9222    H 1 <0>  0.0000
  24   H4       15.4570    4.7874   25.5499    H 1 <0>  0.0000
  25   H5       15.6817    2.1945   24.9001    H 1 <0>  0.0000
  26   H6       16.2479    1.2663   27.4330    H 1 <0>  0.0000
  27   H7       16.1332    4.8109   27.7919    H 1 <0>  0.0000
  28   H8       18.8490    1.8078   26.4511    H 1 <0>  0.0000
  29   H9       17.8303    1.5497   25.0110    H 1 <0>  0.0000
  30  H10       22.2514    7.1117   26.8413    H 1 <0>  0.3999
  31  H11       21.2844    8.5454   27.1099    H 1 <0>  0.3999
  32  H12       14.0407    1.8459   26.3892    H 1 <0>  0.3999
@<TRIPOS>BOND
    1     1     2  1
    2     1     3  1
    3     2    11  1
    4     3    10  1
    5     3    12  1
    6     4    10  1
    7     4    11  1
    8     4    15  1
    9     5     6  1
   10     5     8  1
   11     6     7  1
   12     6    18  1
   13     7     9  1
   14     7    17  1
   15     8    11  1
   16     8    17  1
   17     9    19  1
   18    13    20  1
   19    14    20  1
   20    16    20  1
   21    19    20  1
   22     1    21  1
   23     2    22  1
   24     5    23  1
   25     5    24  1
   26     6    25  1
   27     7    26  1
   28     8    27  1
   29     9    28  1
   30     9    29  1
   31    12    30  1
   32    12    31  1
   33    18    32  1

@<TRIPOS>MOLECULE
MOL
   32   33    0    0    0
SMALL
USER_CHARGES


@<TRIPOS>ATOM
   1   C1       20.3624    5.3547   26.7735  C.2 1 <0> -0.1356
   2   C2       19.2456    4.6323   26.8349  C.2 1 <0> -0.0410
   3   C3       20.2077    6.8238   26.9364  C.2 1 <0>  0.4856
   4   C4       17.8879    6.6037   27.1899  C.2 1 <0>  0.8408
   5   C5       16.2567    4.0693   25.7177  C.3 1 <0>  0.0000
   6   C6       15.7294    2.6604   25.8615  C.3 1 <0>  0.2800
   7   C7       16.7283    2.0138   26.8111  C.3 1 <0>  0.2800
   8   C8       16.8529    4.3389   27.0896  C.3 1 <0>  0.5801
   9   C9       17.9106    1.3823   26.0876  C.3 1 <0>  0.2800
  10   N1       19.0372    7.3731   27.1292  N.2 1 <0> -0.6611
  11   N2       17.9985    5.1995   27.0387 N.am 1 <0> -0.4690
  12   N3       21.3375    7.6065   26.8796 N.pl3 1 <0> -0.8501
  13   O1       18.7676   -2.3524   26.1510  O.3 1 <0> -1.0332
  14   O2       20.3972   -0.3812   26.2318  O.3 1 <0> -1.0332
  15   O3       16.7928    7.1386   27.3717  O.2 1 <0> -0.5698
  16   O4       18.9314   -0.7527   24.1606  O.2 1 <0> -1.0332
  17   O5       17.2345    3.0730   27.6463  O.3 1 <0> -0.5601
  18   O6       14.4370    2.6901   26.4633  O.3 1 <0> -0.6802
  19   O7       17.9091   -0.0135   26.3390  O.3 1 <0> -0.5513
  20   P1       19.0969   -0.9440   25.6653  P.3 1 <0>  1.3711
  21   H1       21.3400    4.9194   26.6151    H 1 <0>  0.1500
  22   H2       19.2680    3.5536   26.7268    H 1 <0>  0.1500
  23   H3       16.9672    4.1798   24.8909    H 1 <0>  0.0000
  24   H4       15.4249    4.7595   25.5218    H 1 <0>  0.0000
  25   H5       15.6666    2.1599   24.9055    H 1 <0>  0.0000
  26   H6       16.2586    1.2709   27.4466    H 1 <0>  0.0000
  27   H7       16.1170    4.8190   27.7583    H 1 <0>  0.0000
  28   H8       18.8490    1.8078   26.4511    H 1 <0>  0.0000
  29   H9       17.8303    1.5497   25.0110    H 1 <0>  0.0000
  30  H10       22.2087    7.1570   26.7321    H 1 <0>  0.3999
  31  H11       21.2318    8.5862   26.9884    H 1 <0>  0.3999
  32  H12       14.0392    1.8180   26.4111    H 1 <0>  0.3999
@<TRIPOS>BOND
    1     1     2  1
    2     1     3  1
    3     2    11  1
    4     3    10  1
    5     3    12  1
    6     4    10  1
    7     4    11  1
    8     4    15  1
    9     5     6  1
   10     5     8  1
   11     6     7  1
   12     6    18  1
   13     7     9  1
   14     7    17  1
   15     8    11  1
   16     8    17  1
   17     9    19  1
   18    13    20  1
   19    14    20  1
   20    16    20  1
   21    19    20  1
   22     1    21  1
   23     2    22  1
   24     5    23  1
   25     5    24  1
   26     6    25  1
   27     7    26  1
   28     8    27  1
   29     9    28  1
   30     9    29  1
   31    12    30  1
   32    12    31  1
   33    18    32  1

@<TRIPOS>MOLECULE
MOL
   32   33    0    0    0
SMALL
USER_CHARGES


@<TRIPOS>ATOM
   1   C1       20.3340    5.3837   26.7019  C.2 1 <0> -0.1356
   2   C2       19.2238    4.6530   26.7812  C.2 1 <0> -0.0410
   3   C3       20.1683    6.8536   26.8460  C.2 1 <0>  0.4856
   4   C4       17.8523    6.6178   27.1193  C.2 1 <0>  0.8408
   5   C5       16.2317    4.0504   25.6935  C.3 1 <0>  0.0000
   6   C6       15.7172    2.6392   25.8602  C.3 1 <0>  0.2800
   7   C7       16.7283    2.0138   26.8111  C.3 1 <0>  0.2800
   8   C8       16.8355    4.3434   27.0572  C.3 1 <0>  0.5801
   9   C9       17.9106    1.3823   26.0876  C.3 1 <0>  0.2800
  10   N1       18.9947    7.3957   27.0399  N.2 1 <0> -0.6611
  11   N2       17.9735    5.2127   26.9864 N.am 1 <0> -0.4690
  12   N3       21.2911    7.6447   26.7703 N.pl3 1 <0> -0.8501
  13   O1       18.7676   -2.3524   26.1510  O.3 1 <0> -1.0332
  14   O2       20.3972   -0.3812   26.2318  O.3 1 <0> -1.0332
  15   O3       16.7540    7.1461   27.3019  O.2 1 <0> -0.5698
  16   O4       18.9314   -0.7527   24.1606  O.2 1 <0> -1.0332
  17   O5       17.2317    3.0883   27.6282  O.3 1 <0> -0.5601
  18   O6       14.4290    2.6665   26.4709  O.3 1 <0> -0.6802
  19   O7       17.9091   -0.0135   26.3390  O.3 1 <0> -0.5513
  20   P1       19.0969   -0.9440   25.6653  P.3 1 <0>  1.3711
  21   H1       21.3141    4.9544   26.5422    H 1 <0>  0.1500
  22   H2       19.2544    3.5732   26.6875    H 1 <0>  0.1500
  23   H3       16.9354    4.1555   24.8601    H 1 <0>  0.0000
  24   H4       15.3929    4.7309   25.4943    H 1 <0>  0.0000
  25   H5       15.6517    2.1253   24.9115    H 1 <0>  0.0000
  26   H6       16.2694    1.2758   27.4599    H 1 <0>  0.0000
  27   H7       16.1004    4.8264   27.7248    H 1 <0>  0.0000
  28   H8       18.8490    1.8078   26.4511    H 1 <0>  0.0000
  29   H9       17.8303    1.5497   25.0110    H 1 <0>  0.0000
  30  H10       22.1649    7.2005   26.6226    H 1 <0>  0.3999
  31  H11       21.1780    8.6249   26.8667    H 1 <0>  0.3999
  32  H12       14.0381    1.7904   26.4334    H 1 <0>  0.3999
@<TRIPOS>BOND
    1     1     2  1
    2     1     3  1
    3     2    11  1
    4     3    10  1
    5     3    12  1
    6     4    10  1
    7     4    11  1
    8     4    15  1
    9     5     6  1
   10     5     8  1
   11     6     7  1
   12     6    18  1
   13     7     9  1
   14     7    17  1
   15     8    11  1
   16     8    17  1
   17     9    19  1
   18    13    20  1
   19    14    20  1
   20    16    20  1
   21    19    20  1
   22     1    21  1
   23     2    22  1
   24     5    23  1
   25     5    24  1
   26     6    25  1
   27     7    26  1
   28     8    27  1
   29     9    28  1
   30     9    29  1
   31    12    30  1
   32    12    31  1
   33    18    32  1

@<TRIPOS>MOLECULE
MOL
   32   33    0    0    0
SMALL
USER_CHARGES


@<TRIPOS>ATOM
   1   C1       20.3049    5.4115   26.6301  C.2 1 <0> -0.1356
   2   C2       19.2014    4.6728   26.7273  C.2 1 <0> -0.0410
   3   C3       20.1280    6.8818   26.7555  C.2 1 <0>  0.4856
   4   C4       17.8160    6.6307   27.0489  C.2 1 <0>  0.8408
   5   C5       16.2067    4.0308   25.6697  C.3 1 <0>  0.0000
   6   C6       15.7053    2.6178   25.8592  C.3 1 <0>  0.2800
   7   C7       16.7283    2.0138   26.8111  C.3 1 <0>  0.2800
   8   C8       16.8178    4.3474   27.0249  C.3 1 <0>  0.5801
   9   C9       17.9106    1.3823   26.0876  C.3 1 <0>  0.2800
  10   N1       18.9513    7.4169   26.9506  N.2 1 <0> -0.6611
  11   N2       17.9480    5.2249   26.9340 N.am 1 <0> -0.4690
  12   N3       21.2435    7.6811   26.6610 N.pl3 1 <0> -0.8501
  13   O1       18.7676   -2.3524   26.1510  O.3 1 <0> -1.0332
  14   O2       20.3972   -0.3812   26.2318  O.3 1 <0> -1.0332
  15   O3       16.7148    7.1523   27.2323  O.2 1 <0> -0.5698
  16   O4       18.9314   -0.7527   24.1606  O.2 1 <0> -1.0332
  17   O5       17.2285    3.1034   27.6099  O.3 1 <0> -0.5601
  18   O6       14.4213    2.6428   26.4789  O.3 1 <0> -0.6802
  19   O7       17.9091   -0.0135   26.3390  O.3 1 <0> -0.5513
  20   P1       19.0969   -0.9440   25.6653  P.3 1 <0>  1.3711
  21   H1       21.2873    4.9882   26.4690    H 1 <0>  0.1500
  22   H2       19.2403    3.5921   26.6480    H 1 <0>  0.1500
  23   H3       16.9035    4.1304   24.8298    H 1 <0>  0.0000
  24   H4       15.3608    4.7017   25.4675    H 1 <0>  0.0000
  25   H5       15.6372    2.0906   24.9180    H 1 <0>  0.0000
  26   H6       16.2802    1.2809   27.4732    H 1 <0>  0.0000
  27   H7       16.0836    4.8333   27.6912    H 1 <0>  0.0000
  28   H8       18.8490    1.8078   26.4511    H 1 <0>  0.0000
  29   H9       17.8303    1.5497   25.0110    H 1 <0>  0.0000
  30  H10       22.1200    7.2421   26.5129    H 1 <0>  0.3999
  31  H11       21.1230    8.6615   26.7449    H 1 <0>  0.3999
  32  H12       14.0374    1.7632   26.4561    H 1 <0>  0.3999
@<TRIPOS>BOND
    1     1     2  1
    2     1     3  1
    3     2    11  1
    4     3    10  1
    5     3    12  1
    6     4    10  1
    7     4    11  1
    8     4    15  1
    9     5     6  1
   10     5     8  1
   11     6     7  1
   12     6    18  1
   13     7     9  1
   14     7    17  1
   15     8    11  1
   16     8    17  1
   17     9    19  1
   18    13    20  1
   19    14    20  1
   20    16    20  1
   21    19    20  1
   22     1    21  1
   23     2    22  1
   24     5    23  1
   25     5    24  1
   26     6    25  1
   27     7    26  1
   28     8    27  1
   29     9    28  1
   30     9    29  1
   31    12    30  1
   32    12    31  1
   33    18    32  1

@<TRIPOS>MOLECULE
MOL
   32   33    0    0    0
SMALL
USER_CHARGES


@<TRIPOS>ATOM
   1   C1       20.2751    5.4381   26.5581  C.2 1 <0> -0.1356
   2   C2       19.1785    4.6918   26.6734  C.2 1 <0> -0.0410
   3   C3       20.0868    6.9085   26.6649  C.2 1 <0>  0.4856
   4   C4       17.7792    6.6423   26.9785  C.2 1 <0>  0.8408
   5   C5       16.1817    4.0108   25.6464  C.3 1 <0>  0.0000
   6   C6       15.6934    2.5964   25.8586  C.3 1 <0>  0.2800
   7   C7       16.7283    2.0138   26.8111  C.3 1 <0>  0.2800
   8   C8       16.7999    4.3507   26.9927  C.3 1 <0>  0.5801
   9   C9       17.9106    1.3823   26.0876  C.3 1 <0>  0.2800
  10   N1       18.9071    7.4364   26.8613  N.2 1 <0> -0.6611
  11   N2       17.9220    5.2362   26.8817 N.am 1 <0> -0.4690
  12   N3       21.1949    7.7155   26.5515 N.pl3 1 <0> -0.8501
  13   O1       18.7676   -2.3524   26.1510  O.3 1 <0> -1.0332
  14   O2       20.3972   -0.3812   26.2318  O.3 1 <0> -1.0332
  15   O3       16.6750    7.1573   27.1629  O.2 1 <0> -0.5698
  16   O4       18.9314   -0.7527   24.1606  O.2 1 <0> -1.0332
  17   O5       17.2252    3.1183   27.5914  O.3 1 <0> -0.5601
  18   O6       14.4138    2.6192   26.4872  O.3 1 <0> -0.6802
  19   O7       17.9091   -0.0135   26.3390  O.3 1 <0> -0.5513
  20   P1       19.0969   -0.9440   25.6653  P.3 1 <0>  1.3711
  21   H1       21.2598    5.0207   26.3956    H 1 <0>  0.1500
  22   H2       19.2259    3.6104   26.6084    H 1 <0>  0.1500
  23   H3       16.8716    4.1047   24.8002    H 1 <0>  0.0000
  24   H4       15.3289    4.6718   25.4413    H 1 <0>  0.0000
  25   H5       15.6231    2.0559   24.9252    H 1 <0>  0.0000
  26   H6       16.2911    1.2863   27.4863    H 1 <0>  0.0000
  27   H7       16.0664    4.8396   27.6577    H 1 <0>  0.0000
  28   H8       18.8490    1.8078   26.4511    H 1 <0>  0.0000
  29   H9       17.8303    1.5497   25.0110    H 1 <0>  0.0000
  30  H10       22.0739    7.2818   26.4029    H 1 <0>  0.3999
  31  H11       21.0668    8.6960   26.6230    H 1 <0>  0.3999
  32  H12       14.0371    1.7362   26.4792    H 1 <0>  0.3999
@<TRIPOS>BOND
    1     1     2  1
    2     1     3  1
    3     2    11  1
    4     3    10  1
    5     3    12  1
    6     4    10  1
    7     4    11  1
    8     4    15  1
    9     5     6  1
   10     5     8  1
   11     6     7  1
   12     6    18  1
   13     7     9  1
   14     7    17  1
   15     8    11  1
   16     8    17  1
   17     9    19  1
   18    13    20  1
   19    14    20  1
   20    16    20  1
   21    19    20  1
   22     1    21  1
   23     2    22  1
   24     5    23  1
   25     5    24  1
   26     6    25  1
   27     7    26  1
   28     8    27  1
   29     9    28  1
   30     9    29  1
   31    12    30  1
   32    12    31  1
   33    18    32  1

@<TRIPOS>MOLECULE
MOL
   32   33    0    0    0
SMALL
USER_CHARGES


@<TRIPOS>ATOM
   1   C1       20.2445    5.4635   26.4860  C.2 1 <0> -0.1356
   2   C2       19.1550    4.7097   26.6193  C.2 1 <0> -0.0410
   3   C3       20.0447    6.9335   26.5743  C.2 1 <0>  0.4856
   4   C4       17.7417    6.6526   26.9083  C.2 1 <0>  0.8408
   5   C5       16.1568    3.9902   25.6235  C.3 1 <0>  0.0000
   6   C6       15.6818    2.5749   25.8584  C.3 1 <0>  0.2800
   7   C7       16.7283    2.0138   26.8111  C.3 1 <0>  0.2800
   8   C8       16.7817    4.3535   26.9606  C.3 1 <0>  0.5801
   9   C9       17.9106    1.3823   26.0876  C.3 1 <0>  0.2800
  10   N1       18.8621    7.4543   26.7721  N.2 1 <0> -0.6611
  11   N2       17.8956    5.2466   26.8294 N.am 1 <0> -0.4690
  12   N3       21.1452    7.7481   26.4419 N.pl3 1 <0> -0.8501
  13   O1       18.7676   -2.3524   26.1510  O.3 1 <0> -1.0332
  14   O2       20.3972   -0.3812   26.2318  O.3 1 <0> -1.0332
  15   O3       16.6346    7.1610   27.0937  O.2 1 <0> -0.5698
  16   O4       18.9314   -0.7527   24.1606  O.2 1 <0> -1.0332
  17   O5       17.2215    3.1328   27.5728  O.3 1 <0> -0.5601
  18   O6       14.4066    2.5957   26.4960  O.3 1 <0> -0.6802
  19   O7       17.9091   -0.0135   26.3390  O.3 1 <0> -0.5513
  20   P1       19.0969   -0.9440   25.6653  P.3 1 <0>  1.3711
  21   H1       21.2315    5.0521   26.3220    H 1 <0>  0.1500
  22   H2       19.2109    3.6280   26.5686    H 1 <0>  0.1500
  23   H3       16.8397    4.0783   24.7711    H 1 <0>  0.0000
  24   H4       15.2969    4.6413   25.4157    H 1 <0>  0.0000
  25   H5       15.6092    2.0212   24.9329    H 1 <0>  0.0000
  26   H6       16.3021    1.2919   27.4992    H 1 <0>  0.0000
  27   H7       16.0490    4.8453   27.6242    H 1 <0>  0.0000
  28   H8       18.8490    1.8078   26.4511    H 1 <0>  0.0000
  29   H9       17.8303    1.5497   25.0110    H 1 <0>  0.0000
  30  H10       22.0268    7.3196   26.2928    H 1 <0>  0.3999
  31  H11       21.0094    8.7283   26.5011    H 1 <0>  0.3999
  32  H12       14.0372    1.7096   26.5026    H 1 <0>  0.3999
@<TRIPOS>BOND
    1     1     2  1
    2     1     3  1
    3     2    11  1
    4     3    10  1
    5     3    12  1
    6     4    10  1
    7     4    11  1
    8     4    15  1
    9     5     6  1
   10     5     8  1
   11     6     7  1
   12     6    18  1
   13     7     9  1
   14     7    17  1
   15     8    11  1
   16     8    17  1
   17     9    19  1
   18    13    20  1
   19    14    20  1
   20    16    20  1
   21    19    20  1
   22     1    21  1
   23     2    22  1
   24     5    23  1
   25     5    24  1
   26     6    25  1
   27     7    26  1
   28     8    27  1
   29     9    28  1
   30     9    29  1
   31    12    30  1
   32    12    31  1
   33    18    32  1

@<TRIPOS>MOLECULE
MOL
   32   33    0    0    0
SMALL
USER_CHARGES


@<TRIPOS>ATOM
   1   C1       20.2132    5.4876   26.4137  C.2 1 <0> -0.1356
   2   C2       19.1310    4.7268   26.5652  C.2 1 <0> -0.0410
   3   C3       20.0018    6.9570   26.4836  C.2 1 <0>  0.4856
   4   C4       17.7037    6.6617   26.8382  C.2 1 <0>  0.8408
   5   C5       16.1318    3.9691   25.6011  C.3 1 <0>  0.0000
   6   C6       15.6704    2.5532   25.8586  C.3 1 <0>  0.2800
   7   C7       16.7283    2.0138   26.8111  C.3 1 <0>  0.2800
   8   C8       16.7633    4.3557   26.9286  C.3 1 <0>  0.5801
   9   C9       17.9106    1.3823   26.0876  C.3 1 <0>  0.2800
  10   N1       18.8164    7.4707   26.6830  N.2 1 <0> -0.6611
  11   N2       17.8687    5.2561   26.7772 N.am 1 <0> -0.4690
  12   N3       21.0945    7.7788   26.3322 N.pl3 1 <0> -0.8501
  13   O1       18.7676   -2.3524   26.1510  O.3 1 <0> -1.0332
  14   O2       20.3972   -0.3812   26.2318  O.3 1 <0> -1.0332
  15   O3       16.5937    7.1634   27.0248  O.2 1 <0> -0.5698
  16   O4       18.9314   -0.7527   24.1606  O.2 1 <0> -1.0332
  17   O5       17.2176    3.1471   27.5540  O.3 1 <0> -0.5601
  18   O6       14.3996    2.5722   26.5051  O.3 1 <0> -0.6802
  19   O7       17.9091   -0.0135   26.3390  O.3 1 <0> -0.5513
  20   P1       19.0969   -0.9440   25.6653  P.3 1 <0>  1.3711
  21   H1       21.2023    5.0821   26.2481    H 1 <0>  0.1500
  22   H2       19.1956    3.6450   26.5287    H 1 <0>  0.1500
  23   H3       16.8078    4.0513   24.7426    H 1 <0>  0.0000
  24   H4       15.2651    4.6103   25.3908    H 1 <0>  0.0000
  25   H5       15.5957    1.9865   24.9412    H 1 <0>  0.0000
  26   H6       16.3131    1.2978   27.5120    H 1 <0>  0.0000
  27   H7       16.0313    4.8503   27.5908    H 1 <0>  0.0000
  28   H8       18.8490    1.8078   26.4511    H 1 <0>  0.0000
  29   H9       17.8303    1.5497   25.0110    H 1 <0>  0.0000
  30  H10       21.9785    7.3556   26.1825    H 1 <0>  0.3999
  31  H11       20.9510    8.7585   26.3791    H 1 <0>  0.3999
  32  H12       14.0377    1.6832   26.5263    H 1 <0>  0.3999
@<TRIPOS>BOND
    1     1     2  1
    2     1     3  1
    3     2    11  1
    4     3    10  1
    5     3    12  1
    6     4    10  1
    7     4    11  1
    8     4    15  1
    9     5     6  1
   10     5     8  1
   11     6     7  1
   12     6    18  1
   13     7     9  1
   14     7    17  1
   15     8    11  1
   16     8    17  1
   17     9    19  1
   18    13    20  1
   19    14    20  1
   20    16    20  1
   21    19    20  1
   22     1    21  1
   23     2    22  1
   24     5    23  1
   25     5    24  1
   26     6    25  1
   27     7    26  1
   28     8    27  1
   29     9    28  1
   30     9    29  1
   31    12    30  1
   32    12    31  1
   33    18    32  1

@<TRIPOS>MOLECULE
MOL
   32   33    0    0    0
SMALL
USER_CHARGES


@<TRIPOS>ATOM
   1   C1       20.1812    5.5105   26.3414  C.2 1 <0> -0.1356
   2   C2       19.1065    4.7429   26.5110  C.2 1 <0> -0.0410
   3   C3       19.9580    6.9789   26.3930  C.2 1 <0>  0.4856
   4   C4       17.6651    6.6696   26.7682  C.2 1 <0>  0.8408
   5   C5       16.1068    3.9475   25.5792  C.3 1 <0>  0.0000
   6   C6       15.6591    2.5315   25.8591  C.3 1 <0>  0.2800
   7   C7       16.7283    2.0138   26.8111  C.3 1 <0>  0.2800
   8   C8       16.7446    4.3572   26.8966  C.3 1 <0>  0.5801
   9   C9       17.9106    1.3823   26.0876  C.3 1 <0>  0.2800
  10   N1       18.7698    7.4855   26.5941  N.2 1 <0> -0.6611
  11   N2       17.8413    5.2646   26.7251 N.am 1 <0> -0.4690
  12   N3       21.0427    7.8075   26.2225 N.pl3 1 <0> -0.8501
  13   O1       18.7676   -2.3524   26.1510  O.3 1 <0> -1.0332
  14   O2       20.3972   -0.3812   26.2318  O.3 1 <0> -1.0332
  15   O3       16.5523    7.1645   26.9562  O.2 1 <0> -0.5698
  16   O4       18.9314   -0.7527   24.1606  O.2 1 <0> -1.0332
  17   O5       17.2135    3.1611   27.5350  O.3 1 <0> -0.5601
  18   O6       14.3929    2.5488   26.5145  O.3 1 <0> -0.6802
  19   O7       17.9091   -0.0135   26.3390  O.3 1 <0> -0.5513
  20   P1       19.0969   -0.9440   25.6653  P.3 1 <0>  1.3711
  21   H1       21.1724    5.1110   26.1741    H 1 <0>  0.1500
  22   H2       19.1798    3.6613   26.4887    H 1 <0>  0.1500
  23   H3       16.7760    4.0236   24.7148    H 1 <0>  0.0000
  24   H4       15.2333    4.5786   25.3666    H 1 <0>  0.0000
  25   H5       15.5826    1.9517   24.9500    H 1 <0>  0.0000
  26   H6       16.3241    1.3040   27.5246    H 1 <0>  0.0000
  27   H7       16.0132    4.8548   27.5575    H 1 <0>  0.0000
  28   H8       18.8490    1.8078   26.4511    H 1 <0>  0.0000
  29   H9       17.8303    1.5497   25.0110    H 1 <0>  0.0000
  30  H10       21.9291    7.3896   26.0721    H 1 <0>  0.3999
  31  H11       20.8914    8.7866   26.2572    H 1 <0>  0.3999
  32  H12       14.0386    1.6572   26.5505    H 1 <0>  0.3999
@<TRIPOS>BOND
    1     1     2  1
    2     1     3  1
    3     2    11  1
    4     3    10  1
    5     3    12  1
    6     4    10  1
    7     4    11  1
    8     4    15  1
    9     5     6  1
   10     5     8  1
   11     6     7  1
   12     6    18  1
   13     7     9  1
   14     7    17  1
   15     8    11  1
   16     8    17  1
   17     9    19  1
   18    13    20  1
   19    14    20  1
   20    16    20  1
   21    19    20  1
   22     1    21  1
   23     2    22  1
   24     5    23  1
   25     5    24  1
   26     6    25  1
   27     7    26  1
   28     8    27  1
   29     9    28  1
   30     9    29  1
   31    12    30  1
   32    12    31  1
   33    18    32  1

@<TRIPOS>MOLECULE
MOL
   32   33    0    0    0
SMALL
USER_CHARGES


@<TRIPOS>ATOM
   1   C1       20.1484    5.5321   26.2690  C.2 1 <0> -0.1356
   2   C2       19.0814    4.7581   26.4568  C.2 1 <0> -0.0410
   3   C3       19.9134    6.9993   26.3023  C.2 1 <0>  0.4856
   4   C4       17.6259    6.6761   26.6985  C.2 1 <0>  0.8408
   5   C5       16.0819    3.9255   25.5577  C.3 1 <0>  0.0000
   6   C6       15.6480    2.5097   25.8600  C.3 1 <0>  0.2800
   7   C7       16.7283    2.0138   26.8111  C.3 1 <0>  0.2800
   8   C8       16.7257    4.3582   26.8648  C.3 1 <0>  0.5801
   9   C9       17.9106    1.3823   26.0876  C.3 1 <0>  0.2800
  10   N1       18.7225    7.4987   26.5053  N.2 1 <0> -0.6611
  11   N2       17.8135    5.2722   26.6731 N.am 1 <0> -0.4690
  12   N3       20.9899    7.8343   26.1128 N.pl3 1 <0> -0.8501
  13   O1       18.7676   -2.3524   26.1510  O.3 1 <0> -1.0332
  14   O2       20.3972   -0.3812   26.2318  O.3 1 <0> -1.0332
  15   O3       16.5104    7.1644   26.8878  O.2 1 <0> -0.5698
  16   O4       18.9314   -0.7527   24.1606  O.2 1 <0> -1.0332
  17   O5       17.2091    3.1747   27.5159  O.3 1 <0> -0.5601
  18   O6       14.3864    2.5254   26.5244  O.3 1 <0> -0.6802
  19   O7       17.9091   -0.0135   26.3390  O.3 1 <0> -0.5513
  20   P1       19.0969   -0.9440   25.6653  P.3 1 <0>  1.3711
  21   H1       21.1418    5.1386   26.0999    H 1 <0>  0.1500
  22   H2       19.1636    3.6769   26.4486    H 1 <0>  0.1500
  23   H3       16.7442    3.9953   24.6875    H 1 <0>  0.0000
  24   H4       15.2017    4.5464   25.3430    H 1 <0>  0.0000
  25   H5       15.5698    1.9170   24.9594    H 1 <0>  0.0000
  26   H6       16.3352    1.3105   27.5371    H 1 <0>  0.0000
  27   H7       15.9950    4.8587   27.5242    H 1 <0>  0.0000
  28   H8       18.8490    1.8078   26.4511    H 1 <0>  0.0000
  29   H9       17.8303    1.5497   25.0110    H 1 <0>  0.0000
  30  H10       21.8786    7.4218   25.9616    H 1 <0>  0.3999
  31  H11       20.8307    8.8126   26.1354    H 1 <0>  0.3999
  32  H12       14.0398    1.6316   26.5749    H 1 <0>  0.3999
@<TRIPOS>BOND
    1     1     2  1
    2     1     3  1
    3     2    11  1
    4     3    10  1
    5     3    12  1
    6     4    10  1
    7     4    11  1
    8     4    15  1
    9     5     6  1
   10     5     8  1
   11     6     7  1
   12     6    18  1
   13     7     9  1
   14     7    17  1
   15     8    11  1
   16     8    17  1
   17     9    19  1
   18    13    20  1
   19    14    20  1
   20    16    20  1
   21    19    20  1
   22     1    21  1
   23     2    22  1
   24     5    23  1
   25     5    24  1
   26     6    25  1
   27     7    26  1
   28     8    27  1
   29     9    28  1
   30     9    29  1
   31    12    30  1
   32    12    31  1
   33    18    32  1

@<TRIPOS>MOLECULE
MOL
   32   33    0    0    0
SMALL
USER_CHARGES


@<TRIPOS>ATOM
   1   C1       20.1150    5.5525   26.1966  C.2 1 <0> -0.1356
   2   C2       19.0559    4.7723   26.4026  C.2 1 <0> -0.0410
   3   C3       19.8680    7.0180   26.2118  C.2 1 <0>  0.4856
   4   C4       17.5861    6.6814   26.6289  C.2 1 <0>  0.8408
   5   C5       16.0570    3.9029   25.5367  C.3 1 <0>  0.0000
   6   C6       15.6371    2.4879   25.8613  C.3 1 <0>  0.2800
   7   C7       16.7283    2.0138   26.8111  C.3 1 <0>  0.2800
   8   C8       16.7065    4.3587   26.8332  C.3 1 <0>  0.5801
   9   C9       17.9106    1.3823   26.0876  C.3 1 <0>  0.2800
  10   N1       18.6745    7.5103   26.4166  N.2 1 <0> -0.6611
  11   N2       17.7853    5.2788   26.6211 N.am 1 <0> -0.4690
  12   N3       20.9361    7.8592   26.0031 N.pl3 1 <0> -0.8501
  13   O1       18.7676   -2.3524   26.1510  O.3 1 <0> -1.0332
  14   O2       20.3972   -0.3812   26.2318  O.3 1 <0> -1.0332
  15   O3       16.4680    7.1630   26.8198  O.2 1 <0> -0.5698
  16   O4       18.9314   -0.7527   24.1606  O.2 1 <0> -1.0332
  17   O5       17.2044    3.1881   27.4966  O.3 1 <0> -0.5601
  18   O6       14.3802    2.5022   26.5346  O.3 1 <0> -0.6802
  19   O7       17.9091   -0.0135   26.3390  O.3 1 <0> -0.5513
  20   P1       19.0969   -0.9440   25.6653  P.3 1 <0>  1.3711
  21   H1       21.1103    5.1649   26.0256    H 1 <0>  0.1500
  22   H2       19.1470    3.6918   26.4084    H 1 <0>  0.1500
  23   H3       16.7124    3.9663   24.6609    H 1 <0>  0.0000
  24   H4       15.1701    4.5135   25.3200    H 1 <0>  0.0000
  25   H5       15.5574    1.8824   24.9694    H 1 <0>  0.0000
  26   H6       16.3463    1.3172   27.5494    H 1 <0>  0.0000
  27   H7       15.9764    4.8620   27.4910    H 1 <0>  0.0000
  28   H8       18.8490    1.8078   26.4511    H 1 <0>  0.0000
  29   H9       17.8303    1.5497   25.0110    H 1 <0>  0.0000
  30  H10       21.8271    7.4520   25.8510    H 1 <0>  0.3999
  31  H11       20.7689    8.8363   26.0136    H 1 <0>  0.3999
  32  H12       14.0415    1.6063   26.5997    H 1 <0>  0.3999
@<TRIPOS>BOND
    1     1     2  1
    2     1     3  1
    3     2    11  1
    4     3    10  1
    5     3    12  1
    6     4    10  1
    7     4    11  1
    8     4    15  1
    9     5     6  1
   10     5     8  1
   11     6     7  1
   12     6    18  1
   13     7     9  1
   14     7    17  1
   15     8    11  1
   16     8    17  1
   17     9    19  1
   18    13    20  1
   19    14    20  1
   20    16    20  1
   21    19    20  1
   22     1    21  1
   23     2    22  1
   24     5    23  1
   25     5    24  1
   26     6    25  1
   27     7    26  1
   28     8    27  1
   29     9    28  1
   30     9    29  1
   31    12    30  1
   32    12    31  1
   33    18    32  1

@<TRIPOS>MOLECULE
MOL
   32   33    0    0    0
SMALL
USER_CHARGES


@<TRIPOS>ATOM
   1   C1       20.0808    5.5716   26.1241  C.2 1 <0> -0.1356
   2   C2       19.0298    4.7856   26.3484  C.2 1 <0> -0.0410
   3   C3       19.8218    7.0351   26.1213  C.2 1 <0>  0.4856
   4   C4       17.5458    6.6854   26.5596  C.2 1 <0>  0.8408
   5   C5       16.0321    3.8798   25.5162  C.3 1 <0>  0.0000
   6   C6       15.6264    2.4659   25.8630  C.3 1 <0>  0.2800
   7   C7       16.7283    2.0138   26.8111  C.3 1 <0>  0.2800
   8   C8       16.6871    4.3585   26.8016  C.3 1 <0>  0.5801
   9   C9       17.9106    1.3823   26.0876  C.3 1 <0>  0.2800
  10   N1       18.6257    7.5203   26.3282  N.2 1 <0> -0.6611
  11   N2       17.7566    5.2846   26.5693 N.am 1 <0> -0.4690
  12   N3       20.8813    7.8822   25.8935 N.pl3 1 <0> -0.8501
  13   O1       18.7676   -2.3524   26.1510  O.3 1 <0> -1.0332
  14   O2       20.3972   -0.3812   26.2318  O.3 1 <0> -1.0332
  15   O3       16.4252    7.1603   26.7521  O.2 1 <0> -0.5698
  16   O4       18.9314   -0.7527   24.1606  O.2 1 <0> -1.0332
  17   O5       17.1995    3.2012   27.4772  O.3 1 <0> -0.5601
  18   O6       14.3743    2.4790   26.5451  O.3 1 <0> -0.6802
  19   O7       17.9091   -0.0135   26.3390  O.3 1 <0> -0.5513
  20   P1       19.0969   -0.9440   25.6653  P.3 1 <0>  1.3711
  21   H1       21.0782    5.1899   25.9511    H 1 <0>  0.1500
  22   H2       19.1300    3.7061   26.3681    H 1 <0>  0.1500
  23   H3       16.6807    3.9367   24.6348    H 1 <0>  0.0000
  24   H4       15.1386    4.4801   25.2978    H 1 <0>  0.0000
  25   H5       15.5454    1.8477   24.9799    H 1 <0>  0.0000
  26   H6       16.3574    1.3241   27.5615    H 1 <0>  0.0000
  27   H7       15.9576    4.8647   27.4579    H 1 <0>  0.0000
  28   H8       18.8490    1.8078   26.4511    H 1 <0>  0.0000
  29   H9       17.8303    1.5497   25.0110    H 1 <0>  0.0000
  30  H10       21.7746    7.4803   25.7405    H 1 <0>  0.3999
  31  H11       20.7060    8.8579   25.8921    H 1 <0>  0.3999
  32  H12       14.0435    1.5813   26.6249    H 1 <0>  0.3999
@<TRIPOS>BOND
    1     1     2  1
    2     1     3  1
    3     2    11  1
    4     3    10  1
    5     3    12  1
    6     4    10  1
    7     4    11  1
    8     4    15  1
    9     5     6  1
   10     5     8  1
   11     6     7  1
   12     6    18  1
   13     7     9  1
   14     7    17  1
   15     8    11  1
   16     8    17  1
   17     9    19  1
   18    13    20  1
   19    14    20  1
   20    16    20  1
   21    19    20  1
   22     1    21  1
   23     2    22  1
   24     5    23  1
   25     5    24  1
   26     6    25  1
   27     7    26  1
   28     8    27  1
   29     9    28  1
   30     9    29  1
   31    12    30  1
   32    12    31  1
   33    18    32  1

@<TRIPOS>MOLECULE
MOL
   32   33    0    0    0
SMALL
USER_CHARGES


@<TRIPOS>ATOM
   1   C1       20.0460    5.5895   26.0517  C.2 1 <0> -0.1356
   2   C2       19.0032    4.7979   26.2942  C.2 1 <0> -0.0410
   3   C3       19.7748    7.0506   26.0310  C.2 1 <0>  0.4856
   4   C4       17.5050    6.6881   26.4905  C.2 1 <0>  0.8408
   5   C5       16.0073    3.8562   25.4963  C.3 1 <0>  0.0000
   6   C6       15.6159    2.4439   25.8650  C.3 1 <0>  0.2800
   7   C7       16.7283    2.0138   26.8111  C.3 1 <0>  0.2800
   8   C8       16.6675    4.3577   26.7702  C.3 1 <0>  0.5801
   9   C9       17.9106    1.3823   26.0876  C.3 1 <0>  0.2800
  10   N1       18.5762    7.5286   26.2400  N.2 1 <0> -0.6611
  11   N2       17.7276    5.2893   26.5176 N.am 1 <0> -0.4690
  12   N3       20.8255    7.9032   25.7840 N.pl3 1 <0> -0.8501
  13   O1       18.7676   -2.3524   26.1510  O.3 1 <0> -1.0332
  14   O2       20.3972   -0.3812   26.2318  O.3 1 <0> -1.0332
  15   O3       16.3818    7.1564   26.6847  O.2 1 <0> -0.5698
  16   O4       18.9314   -0.7527   24.1606  O.2 1 <0> -1.0332
  17   O5       17.1944    3.2140   27.4576  O.3 1 <0> -0.5601
  18   O6       14.3687    2.4559   26.5560  O.3 1 <0> -0.6802
  19   O7       17.9091   -0.0135   26.3390  O.3 1 <0> -0.5513
  20   P1       19.0969   -0.9440   25.6653  P.3 1 <0>  1.3711
  21   H1       21.0452    5.2137   25.8766    H 1 <0>  0.1500
  22   H2       19.1125    3.7196   26.3278    H 1 <0>  0.1500
  23   H3       16.6490    3.9066   24.6094    H 1 <0>  0.0000
  24   H4       15.1073    4.4462   25.2762    H 1 <0>  0.0000
  25   H5       15.5337    1.8131   24.9910    H 1 <0>  0.0000
  26   H6       16.3685    1.3314   27.5734    H 1 <0>  0.0000
  27   H7       15.9385    4.8667   27.4249    H 1 <0>  0.0000
  28   H8       18.8490    1.8078   26.4511    H 1 <0>  0.0000
  29   H9       17.8303    1.5497   25.0110    H 1 <0>  0.0000
  30  H10       21.7210    7.5067   25.6299    H 1 <0>  0.3999
  31  H11       20.6421    8.8774   25.7706    H 1 <0>  0.3999
  32  H12       14.0460    1.5567   26.6503    H 1 <0>  0.3999
@<TRIPOS>BOND
    1     1     2  1
    2     1     3  1
    3     2    11  1
    4     3    10  1
    5     3    12  1
    6     4    10  1
    7     4    11  1
    8     4    15  1
    9     5     6  1
   10     5     8  1
   11     6     7  1
   12     6    18  1
   13     7     9  1
   14     7    17  1
   15     8    11  1
   16     8    17  1
   17     9    19  1
   18    13    20  1
   19    14    20  1
   20    16    20  1
   21    19    20  1
   22     1    21  1
   23     2    22  1
   24     5    23  1
   25     5    24  1
   26     6    25  1
   27     7    26  1
   28     8    27  1
   29     9    28  1
   30     9    29  1
   31    12    30  1
   32    12    31  1
   33    18    32  1

@<TRIPOS>MOLECULE
MOL
   32   33    0    0    0
SMALL
USER_CHARGES


@<TRIPOS>ATOM
   1   C1       20.0106    5.6061   25.9792  C.2 1 <0> -0.1356
   2   C2       18.9761    4.8093   26.2401  C.2 1 <0> -0.0410
   3   C3       19.7270    7.0645   25.9408  C.2 1 <0>  0.4856
   4   C4       17.4637    6.6896   26.4217  C.2 1 <0>  0.8408
   5   C5       15.9826    3.8322   25.4768  C.3 1 <0>  0.0000
   6   C6       15.6056    2.4218   25.8674  C.3 1 <0>  0.2800
   7   C7       16.7283    2.0138   26.8111  C.3 1 <0>  0.2800
   8   C8       16.6477    4.3564   26.7390  C.3 1 <0>  0.5801
   9   C9       17.9106    1.3823   26.0876  C.3 1 <0>  0.2800
  10   N1       18.5260    7.5354   26.1520  N.2 1 <0> -0.6611
  11   N2       17.6981    5.2932   26.4661 N.am 1 <0> -0.4690
  12   N3       20.7688    7.9223   25.6747 N.pl3 1 <0> -0.8501
  13   O1       18.7676   -2.3524   26.1510  O.3 1 <0> -1.0332
  14   O2       20.3972   -0.3812   26.2318  O.3 1 <0> -1.0332
  15   O3       16.3381    7.1512   26.6177  O.2 1 <0> -0.5698
  16   O4       18.9314   -0.7527   24.1606  O.2 1 <0> -1.0332
  17   O5       17.1890    3.2264   27.4379  O.3 1 <0> -0.5601
  18   O6       14.3633    2.4330   26.5673  O.3 1 <0> -0.6802
  19   O7       17.9091   -0.0135   26.3390  O.3 1 <0> -0.5513
  20   P1       19.0969   -0.9440   25.6653  P.3 1 <0>  1.3711
  21   H1       21.0116    5.2362   25.8020    H 1 <0>  0.1500
  22   H2       19.0947    3.7325   26.2874    H 1 <0>  0.1500
  23   H3       16.6175    3.8758   24.5847    H 1 <0>  0.0000
  24   H4       15.0761    4.4117   25.2554    H 1 <0>  0.0000
  25   H5       15.5224    1.7786   25.0027    H 1 <0>  0.0000
  26   H6       16.3797    1.3388   27.5852    H 1 <0>  0.0000
  27   H7       15.9192    4.8682   27.3920    H 1 <0>  0.0000
  28   H8       18.8490    1.8078   26.4511    H 1 <0>  0.0000
  29   H9       17.8303    1.5497   25.0110    H 1 <0>  0.0000
  30  H10       21.6664    7.5311   25.5194    H 1 <0>  0.3999
  31  H11       20.5772    8.8946   25.6495    H 1 <0>  0.3999
  32  H12       14.0488    1.5325   26.6761    H 1 <0>  0.3999
@<TRIPOS>BOND
    1     1     2  1
    2     1     3  1
    3     2    11  1
    4     3    10  1
    5     3    12  1
    6     4    10  1
    7     4    11  1
    8     4    15  1
    9     5     6  1
   10     5     8  1
   11     6     7  1
   12     6    18  1
   13     7     9  1
   14     7    17  1
   15     8    11  1
   16     8    17  1
   17     9    19  1
   18    13    20  1
   19    14    20  1
   20    16    20  1
   21    19    20  1
   22     1    21  1
   23     2    22  1
   24     5    23  1
   25     5    24  1
   26     6    25  1
   27     7    26  1
   28     8    27  1
   29     9    28  1
   30     9    29  1
   31    12    30  1
   32    12    31  1
   33    18    32  1

@<TRIPOS>MOLECULE
MOL
   32   33    0    0    0
SMALL
USER_CHARGES


@<TRIPOS>ATOM
   1   C1       19.9744    5.6214   25.9069  C.2 1 <0> -0.1356
   2   C2       18.9486    4.8197   26.1860  C.2 1 <0> -0.0410
   3   C3       19.6784    7.0767   25.8508  C.2 1 <0>  0.4856
   4   C4       17.4219    6.6898   26.3532  C.2 1 <0>  0.8408
   5   C5       15.9579    3.8077   25.4578  C.3 1 <0>  0.0000
   6   C6       15.5955    2.3997   25.8702  C.3 1 <0>  0.2800
   7   C7       16.7283    2.0138   26.8111  C.3 1 <0>  0.2800
   8   C8       16.6276    4.3544   26.7079  C.3 1 <0>  0.5801
   9   C9       17.9106    1.3823   26.0876  C.3 1 <0>  0.2800
  10   N1       18.4751    7.5406   26.0644  N.2 1 <0> -0.6611
  11   N2       17.6682    5.2961   26.4147 N.am 1 <0> -0.4690
  12   N3       20.7111    7.9394   25.5655 N.pl3 1 <0> -0.8501
  13   O1       18.7676   -2.3524   26.1510  O.3 1 <0> -1.0332
  14   O2       20.3972   -0.3812   26.2318  O.3 1 <0> -1.0332
  15   O3       16.2939    7.1447   26.5512  O.2 1 <0> -0.5698
  16   O4       18.9314   -0.7527   24.1606  O.2 1 <0> -1.0332
  17   O5       17.1834    3.2386   27.4181  O.3 1 <0> -0.5601
  18   O6       14.3582    2.4101   26.5789  O.3 1 <0> -0.6802
  19   O7       17.9091   -0.0135   26.3390  O.3 1 <0> -0.5513
  20   P1       19.0969   -0.9440   25.6653  P.3 1 <0>  1.3711
  21   H1       20.9772    5.2574   25.7273    H 1 <0>  0.1500
  22   H2       19.0765    3.7447   26.2470    H 1 <0>  0.1500
  23   H3       16.5860    3.8444   24.5606    H 1 <0>  0.0000
  24   H4       15.0450    4.3766   25.2352    H 1 <0>  0.0000
  25   H5       15.5114    1.7442   25.0148    H 1 <0>  0.0000
  26   H6       16.3909    1.3465   27.5968    H 1 <0>  0.0000
  27   H7       15.8996    4.8691   27.3593    H 1 <0>  0.0000
  28   H8       18.8490    1.8078   26.4511    H 1 <0>  0.0000
  29   H9       17.8303    1.5497   25.0110    H 1 <0>  0.0000
  30  H10       21.6109    7.5535   25.4090    H 1 <0>  0.3999
  31  H11       20.5112    8.9097   25.5285    H 1 <0>  0.3999
  32  H12       14.0520    1.5086   26.7021    H 1 <0>  0.3999
@<TRIPOS>BOND
    1     1     2  1
    2     1     3  1
    3     2    11  1
    4     3    10  1
    5     3    12  1
    6     4    10  1
    7     4    11  1
    8     4    15  1
    9     5     6  1
   10     5     8  1
   11     6     7  1
   12     6    18  1
   13     7     9  1
   14     7    17  1
   15     8    11  1
   16     8    17  1
   17     9    19  1
   18    13    20  1
   19    14    20  1
   20    16    20  1
   21    19    20  1
   22     1    21  1
   23     2    22  1
   24     5    23  1
   25     5    24  1
   26     6    25  1
   27     7    26  1
   28     8    27  1
   29     9    28  1
   30     9    29  1
   31    12    30  1
   32    12    31  1
   33    18    32  1

@<TRIPOS>MOLECULE
MOL
   32   33    0    0    0
SMALL
USER_CHARGES


@<TRIPOS>ATOM
   1   C1       19.9377    5.6354   25.8345  C.2 1 <0> -0.1356
   2   C2       18.9206    4.8292   26.1319  C.2 1 <0> -0.0410
   3   C3       19.6292    7.0873   25.7609  C.2 1 <0>  0.4856
   4   C4       17.3796    6.6887   26.2850  C.2 1 <0>  0.8408
   5   C5       15.9332    3.7828   25.4393  C.3 1 <0>  0.0000
   6   C6       15.5856    2.3776   25.8733  C.3 1 <0>  0.2800
   7   C7       16.7283    2.0138   26.8111  C.3 1 <0>  0.2800
   8   C8       16.6074    4.3519   26.6770  C.3 1 <0>  0.5801
   9   C9       17.9106    1.3823   26.0876  C.3 1 <0>  0.2800
  10   N1       18.4235    7.5441   25.9770  N.2 1 <0> -0.6611
  11   N2       17.6379    5.2980   26.3636 N.am 1 <0> -0.4690
  12   N3       20.6525    7.9546   25.4565 N.pl3 1 <0> -0.8501
  13   O1       18.7676   -2.3524   26.1510  O.3 1 <0> -1.0332
  14   O2       20.3972   -0.3812   26.2318  O.3 1 <0> -1.0332
  15   O3       16.2492    7.1369   26.4850  O.2 1 <0> -0.5698
  16   O4       18.9314   -0.7527   24.1606  O.2 1 <0> -1.0332
  17   O5       17.1775    3.2504   27.3981  O.3 1 <0> -0.5601
  18   O6       14.3534    2.3874   26.5909  O.3 1 <0> -0.6802
  19   O7       17.9091   -0.0135   26.3390  O.3 1 <0> -0.5513
  20   P1       19.0969   -0.9440   25.6653  P.3 1 <0>  1.3711
  21   H1       20.9421    5.2773   25.6526    H 1 <0>  0.1500
  22   H2       19.0578    3.7562   26.2065    H 1 <0>  0.1500
  23   H3       16.5545    3.8124   24.5372    H 1 <0>  0.0000
  24   H4       15.0141    4.3411   25.2157    H 1 <0>  0.0000
  25   H5       15.5008    1.7098   25.0276    H 1 <0>  0.0000
  26   H6       16.4022    1.3545   27.6082    H 1 <0>  0.0000
  27   H7       15.8798    4.8693   27.3267    H 1 <0>  0.0000
  28   H8       18.8490    1.8078   26.4511    H 1 <0>  0.0000
  29   H9       17.8303    1.5497   25.0110    H 1 <0>  0.0000
  30  H10       21.5543    7.5740   25.2986    H 1 <0>  0.3999
  31  H11       20.4443    8.9226   25.4079    H 1 <0>  0.3999
  32  H12       14.0556    1.4851   26.7285    H 1 <0>  0.3999
@<TRIPOS>BOND
    1     1     2  1
    2     1     3  1
    3     2    11  1
    4     3    10  1
    5     3    12  1
    6     4    10  1
    7     4    11  1
    8     4    15  1
    9     5     6  1
   10     5     8  1
   11     6     7  1
   12     6    18  1
   13     7     9  1
   14     7    17  1
   15     8    11  1
   16     8    17  1
   17     9    19  1
   18    13    20  1
   19    14    20  1
   20    16    20  1
   21    19    20  1
   22     1    21  1
   23     2    22  1
   24     5    23  1
   25     5    24  1
   26     6    25  1
   27     7    26  1
   28     8    27  1
   29     9    28  1
   30     9    29  1
   31    12    30  1
   32    12    31  1
   33    18    32  1

@<TRIPOS>MOLECULE
MOL
   32   33    0    0    0
SMALL
USER_CHARGES


@<TRIPOS>ATOM
   1   C1       19.9003    5.6481   25.7623  C.2 1 <0> -0.1356
   2   C2       18.8921    4.8377   26.0779  C.2 1 <0> -0.0410
   3   C3       19.5791    7.0964   25.6713  C.2 1 <0>  0.4856
   4   C4       17.3368    6.6863   26.2171  C.2 1 <0>  0.8408
   5   C5       15.9087    3.7574   25.4214  C.3 1 <0>  0.0000
   6   C6       15.5759    2.3554   25.8769  C.3 1 <0>  0.2800
   7   C7       16.7283    2.0138   26.8111  C.3 1 <0>  0.2800
   8   C8       16.5869    4.3488   26.6463  C.3 1 <0>  0.5801
   9   C9       17.9106    1.3823   26.0876  C.3 1 <0>  0.2800
  10   N1       18.3713    7.5461   25.8900  N.2 1 <0> -0.6611
  11   N2       17.6073    5.2990   26.3126 N.am 1 <0> -0.4690
  12   N3       20.5930    7.9678   25.3477 N.pl3 1 <0> -0.8501
  13   O1       18.7676   -2.3524   26.1510  O.3 1 <0> -1.0332
  14   O2       20.3972   -0.3812   26.2318  O.3 1 <0> -1.0332
  15   O3       16.2042    7.1279   26.4193  O.2 1 <0> -0.5698
  16   O4       18.9314   -0.7527   24.1606  O.2 1 <0> -1.0332
  17   O5       17.1714    3.2620   27.3781  O.3 1 <0> -0.5601
  18   O6       14.3488    2.3648   26.6032  O.3 1 <0> -0.6802
  19   O7       17.9091   -0.0135   26.3390  O.3 1 <0> -0.5513
  20   P1       19.0969   -0.9440   25.6653  P.3 1 <0>  1.3711
  21   H1       20.9063    5.2959   25.5779    H 1 <0>  0.1500
  22   H2       19.0388    3.7669   26.1661    H 1 <0>  0.1500
  23   H3       16.5232    3.7799   24.5144    H 1 <0>  0.0000
  24   H4       14.9834    4.3050   25.1969    H 1 <0>  0.0000
  25   H5       15.4906    1.6755   25.0408    H 1 <0>  0.0000
  26   H6       16.4134    1.3627   27.6193    H 1 <0>  0.0000
  27   H7       15.8597    4.8690   27.2942    H 1 <0>  0.0000
  28   H8       18.8490    1.8078   26.4511    H 1 <0>  0.0000
  29   H9       17.8303    1.5497   25.0110    H 1 <0>  0.0000
  30  H10       21.4968    7.5926   25.1885    H 1 <0>  0.3999
  31  H11       20.3764    8.9333   25.2876    H 1 <0>  0.3999
  32  H12       14.0596    1.4621   26.7551    H 1 <0>  0.3999
@<TRIPOS>BOND
    1     1     2  1
    2     1     3  1
    3     2    11  1
    4     3    10  1
    5     3    12  1
    6     4    10  1
    7     4    11  1
    8     4    15  1
    9     5     6  1
   10     5     8  1
   11     6     7  1
   12     6    18  1
   13     7     9  1
   14     7    17  1
   15     8    11  1
   16     8    17  1
   17     9    19  1
   18    13    20  1
   19    14    20  1
   20    16    20  1
   21    19    20  1
   22     1    21  1
   23     2    22  1
   24     5    23  1
   25     5    24  1
   26     6    25  1
   27     7    26  1
   28     8    27  1
   29     9    28  1
   30     9    29  1
   31    12    30  1
   32    12    31  1
   33    18    32  1

@<TRIPOS>MOLECULE
MOL
   32   33    0    0    0
SMALL
USER_CHARGES


@<TRIPOS>ATOM
   1   C1       19.8622    5.6596   25.6902  C.2 1 <0> -0.1356
   2   C2       18.8631    4.8452   26.0241  C.2 1 <0> -0.0410
   3   C3       19.5284    7.1037   25.5820  C.2 1 <0>  0.4856
   4   C4       17.2935    6.6827   26.1496  C.2 1 <0>  0.8408
   5   C5       15.8842    3.7315   25.4039  C.3 1 <0>  0.0000
   6   C6       15.5664    2.3331   25.8808  C.3 1 <0>  0.2800
   7   C7       16.7283    2.0138   26.8111  C.3 1 <0>  0.2800
   8   C8       16.5663    4.3451   26.6158  C.3 1 <0>  0.5801
   9   C9       17.9106    1.3823   26.0876  C.3 1 <0>  0.2800
  10   N1       18.3185    7.5464   25.8033  N.2 1 <0> -0.6611
  11   N2       17.5763    5.2991   26.2618 N.am 1 <0> -0.4690
  12   N3       20.5327    7.9790   25.2392 N.pl3 1 <0> -0.8501
  13   O1       18.7676   -2.3524   26.1510  O.3 1 <0> -1.0332
  14   O2       20.3972   -0.3812   26.2318  O.3 1 <0> -1.0332
  15   O3       16.1588    7.1176   26.3540  O.2 1 <0> -0.5698
  16   O4       18.9314   -0.7527   24.1606  O.2 1 <0> -1.0332
  17   O5       17.1650    3.2731   27.3579  O.3 1 <0> -0.5601
  18   O6       14.3445    2.3423   26.6158  O.3 1 <0> -0.6802
  19   O7       17.9091   -0.0135   26.3390  O.3 1 <0> -0.5513
  20   P1       19.0969   -0.9440   25.6653  P.3 1 <0>  1.3711
  21   H1       20.8699    5.3131   25.5032    H 1 <0>  0.1500
  22   H2       19.0194    3.7770   26.1256    H 1 <0>  0.1500
  23   H3       16.4920    3.7468   24.4923    H 1 <0>  0.0000
  24   H4       14.9528    4.2684   25.1789    H 1 <0>  0.0000
  25   H5       15.4808    1.6413   25.0546    H 1 <0>  0.0000
  26   H6       16.4247    1.3712   27.6303    H 1 <0>  0.0000
  27   H7       15.8394    4.8680   27.2619    H 1 <0>  0.0000
  28   H8       18.8490    1.8078   26.4511    H 1 <0>  0.0000
  29   H9       17.8303    1.5497   25.0110    H 1 <0>  0.0000
  30  H10       21.4383    7.6091   25.0785    H 1 <0>  0.3999
  31  H11       20.3075    8.9418   25.1676    H 1 <0>  0.3999
  32  H12       14.0639    1.4394   26.7820    H 1 <0>  0.3999
@<TRIPOS>BOND
    1     1     2  1
    2     1     3  1
    3     2    11  1
    4     3    10  1
    5     3    12  1
    6     4    10  1
    7     4    11  1
    8     4    15  1
    9     5     6  1
   10     5     8  1
   11     6     7  1
   12     6    18  1
   13     7     9  1
   14     7    17  1
   15     8    11  1
   16     8    17  1
   17     9    19  1
   18    13    20  1
   19    14    20  1
   20    16    20  1
   21    19    20  1
   22     1    21  1
   23     2    22  1
   24     5    23  1
   25     5    24  1
   26     6    25  1
   27     7    26  1
   28     8    27  1
   29     9    28  1
   30     9    29  1
   31    12    30  1
   32    12    31  1
   33    18    32  1

@<TRIPOS>MOLECULE
MOL
   32   33    0    0    0
SMALL
USER_CHARGES


@<TRIPOS>ATOM
   1   C1       19.8236    5.6697   25.6182  C.2 1 <0> -0.1356
   2   C2       18.8337    4.8518   25.9703  C.2 1 <0> -0.0410
   3   C3       19.4770    7.1095   25.4929  C.2 1 <0>  0.4856
   4   C4       17.2498    6.6778   26.0824  C.2 1 <0>  0.8408
   5   C5       15.8598    3.7053   25.3870  C.3 1 <0>  0.0000
   6   C6       15.5571    2.3109   25.8850  C.3 1 <0>  0.2800
   7   C7       16.7283    2.0138   26.8111  C.3 1 <0>  0.2800
   8   C8       16.5454    4.3408   26.5855  C.3 1 <0>  0.5801
   9   C9       17.9106    1.3823   26.0876  C.3 1 <0>  0.2800
  10   N1       18.2650    7.5452   25.7171  N.2 1 <0> -0.6611
  11   N2       17.5449    5.2982   26.2113 N.am 1 <0> -0.4690
  12   N3       20.4714    7.9883   25.1311 N.pl3 1 <0> -0.8501
  13   O1       18.7676   -2.3524   26.1510  O.3 1 <0> -1.0332
  14   O2       20.3972   -0.3812   26.2318  O.3 1 <0> -1.0332
  15   O3       16.1130    7.1061   26.2893  O.2 1 <0> -0.5698
  16   O4       18.9314   -0.7527   24.1606  O.2 1 <0> -1.0332
  17   O5       17.1584    3.2840   27.3376  O.3 1 <0> -0.5601
  18   O6       14.3405    2.3200   26.6287  O.3 1 <0> -0.6802
  19   O7       17.9091   -0.0135   26.3390  O.3 1 <0> -0.5513
  20   P1       19.0969   -0.9440   25.6653  P.3 1 <0>  1.3711
  21   H1       20.8327    5.3291   25.4286    H 1 <0>  0.1500
  22   H2       18.9997    3.7863   26.0851    H 1 <0>  0.1500
  23   H3       16.4609    3.7132   24.4709    H 1 <0>  0.0000
  24   H4       14.9224    4.2313   25.1615    H 1 <0>  0.0000
  25   H5       15.4714    1.6072   25.0690    H 1 <0>  0.0000
  26   H6       16.4359    1.3799   27.6412    H 1 <0>  0.0000
  27   H7       15.8189    4.8664   27.2297    H 1 <0>  0.0000
  28   H8       18.8490    1.8078   26.4511    H 1 <0>  0.0000
  29   H9       17.8303    1.5497   25.0110    H 1 <0>  0.0000
  30  H10       21.3789    7.6237   24.9687    H 1 <0>  0.3999
  31  H11       20.2377    8.9481   25.0481    H 1 <0>  0.3999
  32  H12       14.0687    1.4171   26.8092    H 1 <0>  0.3999
@<TRIPOS>BOND
    1     1     2  1
    2     1     3  1
    3     2    11  1
    4     3    10  1
    5     3    12  1
    6     4    10  1
    7     4    11  1
    8     4    15  1
    9     5     6  1
   10     5     8  1
   11     6     7  1
   12     6    18  1
   13     7     9  1
   14     7    17  1
   15     8    11  1
   16     8    17  1
   17     9    19  1
   18    13    20  1
   19    14    20  1
   20    16    20  1
   21    19    20  1
   22     1    21  1
   23     2    22  1
   24     5    23  1
   25     5    24  1
   26     6    25  1
   27     7    26  1
   28     8    27  1
   29     9    28  1
   30     9    29  1
   31    12    30  1
   32    12    31  1
   33    18    32  1

@<TRIPOS>MOLECULE
MOL
   32   33    0    0    0
SMALL
USER_CHARGES


@<TRIPOS>ATOM
   1   C1       19.7844    5.6786   25.5463  C.2 1 <0> -0.1356
   2   C2       18.8039    4.8573   25.9167  C.2 1 <0> -0.0410
   3   C3       19.4248    7.1136   25.4041  C.2 1 <0>  0.4856
   4   C4       17.2056    6.6716   26.0157  C.2 1 <0>  0.8408
   5   C5       15.8356    3.6786   25.3707  C.3 1 <0>  0.0000
   6   C6       15.5480    2.2886   25.8897  C.3 1 <0>  0.2800
   7   C7       16.7283    2.0138   26.8111  C.3 1 <0>  0.2800
   8   C8       16.5244    4.3360   26.5554  C.3 1 <0>  0.5801
   9   C9       17.9106    1.3823   26.0876  C.3 1 <0>  0.2800
  10   N1       18.2109    7.5423   25.6312  N.2 1 <0> -0.6611
  11   N2       17.5131    5.2964   26.1610 N.am 1 <0> -0.4690
  12   N3       20.4093    7.9956   25.0232 N.pl3 1 <0> -0.8501
  13   O1       18.7676   -2.3524   26.1510  O.3 1 <0> -1.0332
  14   O2       20.3972   -0.3812   26.2318  O.3 1 <0> -1.0332
  15   O3       16.0668    7.0933   26.2250  O.2 1 <0> -0.5698
  16   O4       18.9314   -0.7527   24.1606  O.2 1 <0> -1.0332
  17   O5       17.1515    3.2945   27.3173  O.3 1 <0> -0.5601
  18   O6       14.3368    2.2978   26.6420  O.3 1 <0> -0.6802
  19   O7       17.9091   -0.0135   26.3390  O.3 1 <0> -0.5513
  20   P1       19.0969   -0.9440   25.6653  P.3 1 <0>  1.3711
  21   H1       20.7949    5.3437   25.3540    H 1 <0>  0.1500
  22   H2       18.9795    3.7950   26.0447    H 1 <0>  0.1500
  23   H3       16.4300    3.6790   24.4501    H 1 <0>  0.0000
  24   H4       14.8921    4.1938   25.1449    H 1 <0>  0.0000
  25   H5       15.4624    1.5733   25.0839    H 1 <0>  0.0000
  26   H6       16.4472    1.3888   27.6518    H 1 <0>  0.0000
  27   H7       15.7982    4.8643   27.1978    H 1 <0>  0.0000
  28   H8       18.8490    1.8078   26.4511    H 1 <0>  0.0000
  29   H9       17.8303    1.5497   25.0110    H 1 <0>  0.0000
  30  H10       21.3186    7.6363   24.8592    H 1 <0>  0.3999
  31  H11       20.1670    8.9522   24.9290    H 1 <0>  0.3999
  32  H12       14.0738    1.3952   26.8367    H 1 <0>  0.3999
@<TRIPOS>BOND
    1     1     2  1
    2     1     3  1
    3     2    11  1
    4     3    10  1
    5     3    12  1
    6     4    10  1
    7     4    11  1
    8     4    15  1
    9     5     6  1
   10     5     8  1
   11     6     7  1
   12     6    18  1
   13     7     9  1
   14     7    17  1
   15     8    11  1
   16     8    17  1
   17     9    19  1
   18    13    20  1
   19    14    20  1
   20    16    20  1
   21    19    20  1
   22     1    21  1
   23     2    22  1
   24     5    23  1
   25     5    24  1
   26     6    25  1
   27     7    26  1
   28     8    27  1
   29     9    28  1
   30     9    29  1
   31    12    30  1
   32    12    31  1
   33    18    32  1

@<TRIPOS>MOLECULE
MOL
   32   33    0    0    0
SMALL
USER_CHARGES


@<TRIPOS>ATOM
   1   C1       19.7445    5.6861   25.4746  C.2 1 <0> -0.1356
   2   C2       18.7737    4.8619   25.8633  C.2 1 <0> -0.0410
   3   C3       19.3720    7.1161   25.3157  C.2 1 <0>  0.4856
   4   C4       17.1610    6.6641   25.9493  C.2 1 <0>  0.8408
   5   C5       15.8114    3.6514   25.3548  C.3 1 <0>  0.0000
   6   C6       15.5392    2.2664   25.8947  C.3 1 <0>  0.2800
   7   C7       16.7283    2.0138   26.8111  C.3 1 <0>  0.2800
   8   C8       16.5032    4.3305   26.5256  C.3 1 <0>  0.5801
   9   C9       17.9106    1.3823   26.0876  C.3 1 <0>  0.2800
  10   N1       18.1563    7.5378   25.5458  N.2 1 <0> -0.6611
  11   N2       17.4810    5.2936   26.1110 N.am 1 <0> -0.4690
  12   N3       20.3463    8.0009   24.9157 N.pl3 1 <0> -0.8501
  13   O1       18.7676   -2.3524   26.1510  O.3 1 <0> -1.0332
  14   O2       20.3972   -0.3812   26.2318  O.3 1 <0> -1.0332
  15   O3       16.0203    7.0792   26.1612  O.2 1 <0> -0.5698
  16   O4       18.9314   -0.7527   24.1606  O.2 1 <0> -1.0332
  17   O5       17.1445    3.3047   27.2968  O.3 1 <0> -0.5601
  18   O6       14.3334    2.2757   26.6557  O.3 1 <0> -0.6802
  19   O7       17.9091   -0.0135   26.3390  O.3 1 <0> -0.5513
  20   P1       19.0969   -0.9440   25.6653  P.3 1 <0>  1.3711
  21   H1       20.7564    5.3570   25.2795    H 1 <0>  0.1500
  22   H2       18.9590    3.8029   26.0043    H 1 <0>  0.1500
  23   H3       16.3992    3.6443   24.4301    H 1 <0>  0.0000
  24   H4       14.8621    4.1557   25.1290    H 1 <0>  0.0000
  25   H5       15.4537    1.5394   25.0992    H 1 <0>  0.0000
  26   H6       16.4584    1.3980   27.6622    H 1 <0>  0.0000
  27   H7       15.7772    4.8615   27.1660    H 1 <0>  0.0000
  28   H8       18.8490    1.8078   26.4511    H 1 <0>  0.0000
  29   H9       17.8303    1.5497   25.0110    H 1 <0>  0.0000
  30  H10       21.2575    7.6470   24.7500    H 1 <0>  0.3999
  31  H11       20.0954    8.9541   24.8103    H 1 <0>  0.3999
  32  H12       14.0793    1.3738   26.8644    H 1 <0>  0.3999
@<TRIPOS>BOND
    1     1     2  1
    2     1     3  1
    3     2    11  1
    4     3    10  1
    5     3    12  1
    6     4    10  1
    7     4    11  1
    8     4    15  1
    9     5     6  1
   10     5     8  1
   11     6     7  1
   12     6    18  1
   13     7     9  1
   14     7    17  1
   15     8    11  1
   16     8    17  1
   17     9    19  1
   18    13    20  1
   19    14    20  1
   20    16    20  1
   21    19    20  1
   22     1    21  1
   23     2    22  1
   24     5    23  1
   25     5    24  1
   26     6    25  1
   27     7    26  1
   28     8    27  1
   29     9    28  1
   30     9    29  1
   31    12    30  1
   32    12    31  1
   33    18    32  1

@<TRIPOS>MOLECULE
MOL
   32   33    0    0    0
SMALL
USER_CHARGES


@<TRIPOS>ATOM
   1   C1       19.7041    5.6924   25.4032  C.2 1 <0> -0.1356
   2   C2       18.7430    4.8656   25.8100  C.2 1 <0> -0.0410
   3   C3       19.3186    7.1169   25.2276  C.2 1 <0>  0.4856
   4   C4       17.1161    6.6554   25.8834  C.2 1 <0>  0.8408
   5   C5       15.7873    3.6239   25.3396  C.3 1 <0>  0.0000
   6   C6       15.5306    2.2441   25.9000  C.3 1 <0>  0.2800
   7   C7       16.7283    2.0138   26.8111  C.3 1 <0>  0.2800
   8   C8       16.4819    4.3245   26.4959  C.3 1 <0>  0.5801
   9   C9       17.9106    1.3823   26.0876  C.3 1 <0>  0.2800
  10   N1       18.1010    7.5317   25.4609  N.2 1 <0> -0.6611
  11   N2       17.4486    5.2899   26.0613 N.am 1 <0> -0.4690
  12   N3       20.2826    8.0042   24.8086 N.pl3 1 <0> -0.8501
  13   O1       18.7676   -2.3524   26.1510  O.3 1 <0> -1.0332
  14   O2       20.3972   -0.3812   26.2318  O.3 1 <0> -1.0332
  15   O3       15.9734    7.0639   26.0980  O.2 1 <0> -0.5698
  16   O4       18.9314   -0.7527   24.1606  O.2 1 <0> -1.0332
  17   O5       17.1372    3.3146   27.2763  O.3 1 <0> -0.5601
  18   O6       14.3302    2.2539   26.6696  O.3 1 <0> -0.6802
  19   O7       17.9091   -0.0135   26.3390  O.3 1 <0> -0.5513
  20   P1       19.0969   -0.9440   25.6653  P.3 1 <0>  1.3711
  21   H1       20.7173    5.3690   25.2051    H 1 <0>  0.1500
  22   H2       18.9382    3.8101   25.9639    H 1 <0>  0.1500
  23   H3       16.3685    3.6090   24.4107    H 1 <0>  0.0000
  24   H4       14.8323    4.1172   25.1139    H 1 <0>  0.0000
  25   H5       15.4455    1.5057   25.1152    H 1 <0>  0.0000
  26   H6       16.4697    1.4074   27.6723    H 1 <0>  0.0000
  27   H7       15.7561    4.8581   27.1344    H 1 <0>  0.0000
  28   H8       18.8490    1.8078   26.4511    H 1 <0>  0.0000
  29   H9       17.8303    1.5497   25.0110    H 1 <0>  0.0000
  30  H10       21.1954    7.6556   24.6410    H 1 <0>  0.3999
  31  H11       20.0230    8.9539   24.6922    H 1 <0>  0.3999
  32  H12       14.0852    1.3528   26.8924    H 1 <0>  0.3999
@<TRIPOS>BOND
    1     1     2  1
    2     1     3  1
    3     2    11  1
    4     3    10  1
    5     3    12  1
    6     4    10  1
    7     4    11  1
    8     4    15  1
    9     5     6  1
   10     5     8  1
   11     6     7  1
   12     6    18  1
   13     7     9  1
   14     7    17  1
   15     8    11  1
   16     8    17  1
   17     9    19  1
   18    13    20  1
   19    14    20  1
   20    16    20  1
   21    19    20  1
   22     1    21  1
   23     2    22  1
   24     5    23  1
   25     5    24  1
   26     6    25  1
   27     7    26  1
   28     8    27  1
   29     9    28  1
   30     9    29  1
   31    12    30  1
   32    12    31  1
   33    18    32  1

@<TRIPOS>MOLECULE
MOL
   32   33    0    0    0
SMALL
USER_CHARGES


@<TRIPOS>ATOM
   1   C1       19.6632    5.6973   25.3319  C.2 1 <0> -0.1356
   2   C2       18.7119    4.8682   25.7568  C.2 1 <0> -0.0410
   3   C3       19.2645    7.1161   25.1400  C.2 1 <0>  0.4856
   4   C4       17.0707    6.6454   25.8180  C.2 1 <0>  0.8408
   5   C5       15.7634    3.5960   25.3248  C.3 1 <0>  0.0000
   6   C6       15.5222    2.2218   25.9058  C.3 1 <0>  0.2800
   7   C7       16.7283    2.0138   26.8111  C.3 1 <0>  0.2800
   8   C8       16.4604    4.3179   26.4665  C.3 1 <0>  0.5801
   9   C9       17.9106    1.3823   26.0876  C.3 1 <0>  0.2800
  10   N1       18.0453    7.5239   25.3765  N.2 1 <0> -0.6611
  11   N2       17.4159    5.2852   26.0118 N.am 1 <0> -0.4690
  12   N3       20.2181    8.0055   24.7020 N.pl3 1 <0> -0.8501
  13   O1       18.7676   -2.3524   26.1510  O.3 1 <0> -1.0332
  14   O2       20.3972   -0.3812   26.2318  O.3 1 <0> -1.0332
  15   O3       15.9262    7.0474   26.0353  O.2 1 <0> -0.5698
  16   O4       18.9314   -0.7527   24.1606  O.2 1 <0> -1.0332
  17   O5       17.1296    3.3241   27.2556  O.3 1 <0> -0.5601
  18   O6       14.3274    2.2321   26.6839  O.3 1 <0> -0.6802
  19   O7       17.9091   -0.0135   26.3390  O.3 1 <0> -0.5513
  20   P1       19.0969   -0.9440   25.6653  P.3 1 <0>  1.3711
  21   H1       20.6776    5.3797   25.1309    H 1 <0>  0.1500
  22   H2       18.9170    3.8166   25.9237    H 1 <0>  0.1500
  23   H3       16.3380    3.5733   24.3920    H 1 <0>  0.0000
  24   H4       14.8027    4.0783   25.0995    H 1 <0>  0.0000
  25   H5       15.4376    1.4722   25.1316    H 1 <0>  0.0000
  26   H6       16.4810    1.4171   27.6823    H 1 <0>  0.0000
  27   H7       15.7348    4.8541   27.1030    H 1 <0>  0.0000
  28   H8       18.8490    1.8078   26.4511    H 1 <0>  0.0000
  29   H9       17.8303    1.5497   25.0110    H 1 <0>  0.0000
  30  H10       21.1325    7.6622   24.5325    H 1 <0>  0.3999
  31  H11       19.9497    8.9514   24.5746    H 1 <0>  0.3999
  32  H12       14.0914    1.3322   26.9206    H 1 <0>  0.3999
@<TRIPOS>BOND
    1     1     2  1
    2     1     3  1
    3     2    11  1
    4     3    10  1
    5     3    12  1
    6     4    10  1
    7     4    11  1
    8     4    15  1
    9     5     6  1
   10     5     8  1
   11     6     7  1
   12     6    18  1
   13     7     9  1
   14     7    17  1
   15     8    11  1
   16     8    17  1
   17     9    19  1
   18    13    20  1
   19    14    20  1
   20    16    20  1
   21    19    20  1
   22     1    21  1
   23     2    22  1
   24     5    23  1
   25     5    24  1
   26     6    25  1
   27     7    26  1
   28     8    27  1
   29     9    28  1
   30     9    29  1
   31    12    30  1
   32    12    31  1
   33    18    32  1

@<TRIPOS>MOLECULE
MOL
   32   33    0    0    0
SMALL
USER_CHARGES


@<TRIPOS>ATOM
   1   C1       19.6217    5.7010   25.2609  C.2 1 <0> -0.1356
   2   C2       18.6804    4.8699   25.7039  C.2 1 <0> -0.0410
   3   C3       19.2098    7.1137   25.0527  C.2 1 <0>  0.4856
   4   C4       17.0249    6.6342   25.7530  C.2 1 <0>  0.8408
   5   C5       15.7396    3.5676   25.3107  C.3 1 <0>  0.0000
   6   C6       15.5140    2.1996   25.9118  C.3 1 <0>  0.2800
   7   C7       16.7283    2.0138   26.8111  C.3 1 <0>  0.2800
   8   C8       16.4387    4.3107   26.4374  C.3 1 <0>  0.5801
   9   C9       17.9106    1.3823   26.0876  C.3 1 <0>  0.2800
  10   N1       17.9889    7.5146   25.2926  N.2 1 <0> -0.6611
  11   N2       17.3828    5.2796   25.9627 N.am 1 <0> -0.4690
  12   N3       20.1527    8.0049   24.5958 N.pl3 1 <0> -0.8501
  13   O1       18.7676   -2.3524   26.1510  O.3 1 <0> -1.0332
  14   O2       20.3972   -0.3812   26.2318  O.3 1 <0> -1.0332
  15   O3       15.8787    7.0296   25.9732  O.2 1 <0> -0.5698
  16   O4       18.9314   -0.7527   24.1606  O.2 1 <0> -1.0332
  17   O5       17.1219    3.3333   27.2349  O.3 1 <0> -0.5601
  18   O6       14.3248    2.2106   26.6984  O.3 1 <0> -0.6802
  19   O7       17.9091   -0.0135   26.3390  O.3 1 <0> -0.5513
  20   P1       19.0969   -0.9440   25.6653  P.3 1 <0>  1.3711
  21   H1       20.6372    5.3890   25.0568    H 1 <0>  0.1500
  22   H2       18.8955    3.8223   25.8834    H 1 <0>  0.1500
  23   H3       16.3076    3.5370   24.3741    H 1 <0>  0.0000
  24   H4       14.7733    4.0390   25.0858    H 1 <0>  0.0000
  25   H5       15.4301    1.4388   25.1485    H 1 <0>  0.0000
  26   H6       16.4922    1.4269   27.6921    H 1 <0>  0.0000
  27   H7       15.7132    4.8496   27.0718    H 1 <0>  0.0000
  28   H8       18.8490    1.8078   26.4511    H 1 <0>  0.0000
  29   H9       17.8303    1.5497   25.0110    H 1 <0>  0.0000
  30  H10       21.0688    7.6669   24.4243    H 1 <0>  0.3999
  31  H11       19.8756    8.9467   24.4576    H 1 <0>  0.3999
  32  H12       14.0981    1.3120   26.9490    H 1 <0>  0.3999
@<TRIPOS>BOND
    1     1     2  1
    2     1     3  1
    3     2    11  1
    4     3    10  1
    5     3    12  1
    6     4    10  1
    7     4    11  1
    8     4    15  1
    9     5     6  1
   10     5     8  1
   11     6     7  1
   12     6    18  1
   13     7     9  1
   14     7    17  1
   15     8    11  1
   16     8    17  1
   17     9    19  1
   18    13    20  1
   19    14    20  1
   20    16    20  1
   21    19    20  1
   22     1    21  1
   23     2    22  1
   24     5    23  1
   25     5    24  1
   26     6    25  1
   27     7    26  1
   28     8    27  1
   29     9    28  1
   30     9    29  1
   31    12    30  1
   32    12    31  1
   33    18    32  1

@<TRIPOS>MOLECULE
MOL
   32   33    0    0    0
SMALL
USER_CHARGES


@<TRIPOS>ATOM
   1   C1       19.5796    5.7033   25.1901  C.2 1 <0> -0.1356
   2   C2       18.6485    4.8706   25.6512  C.2 1 <0> -0.0410
   3   C3       19.1545    7.1096   24.9659  C.2 1 <0>  0.4856
   4   C4       16.9787    6.6217   25.6885  C.2 1 <0>  0.8408
   5   C5       15.7159    3.5389   25.2970  C.3 1 <0>  0.0000
   6   C6       15.5061    2.1773   25.9183  C.3 1 <0>  0.2800
   7   C7       16.7283    2.0138   26.8111  C.3 1 <0>  0.2800
   8   C8       16.4169    4.3030   26.4085  C.3 1 <0>  0.5801
   9   C9       17.9106    1.3823   26.0876  C.3 1 <0>  0.2800
  10   N1       17.9321    7.5037   25.2092  N.2 1 <0> -0.6611
  11   N2       17.3494    5.2731   25.9139 N.am 1 <0> -0.4690
  12   N3       20.0867    8.0023   24.4901 N.pl3 1 <0> -0.8501
  13   O1       18.7676   -2.3524   26.1510  O.3 1 <0> -1.0332
  14   O2       20.3972   -0.3812   26.2318  O.3 1 <0> -1.0332
  15   O3       15.8309    7.0106   25.9117  O.2 1 <0> -0.5698
  16   O4       18.9314   -0.7527   24.1606  O.2 1 <0> -1.0332
  17   O5       17.1139    3.3421   27.2142  O.3 1 <0> -0.5601
  18   O6       14.3225    2.1892   26.7133  O.3 1 <0> -0.6802
  19   O7       17.9091   -0.0135   26.3390  O.3 1 <0> -0.5513
  20   P1       19.0969   -0.9440   25.6653  P.3 1 <0>  1.3711
  21   H1       20.5962    5.3969   24.9829    H 1 <0>  0.1500
  22   H2       18.8736    3.8274   25.8433    H 1 <0>  0.1500
  23   H3       16.2775    3.5003   24.3569    H 1 <0>  0.0000
  24   H4       14.7441    3.9992   25.0729    H 1 <0>  0.0000
  25   H5       15.4231    1.4056   25.1659    H 1 <0>  0.0000
  26   H6       16.5034    1.4370   27.7016    H 1 <0>  0.0000
  27   H7       15.6915    4.8444   27.0408    H 1 <0>  0.0000
  28   H8       18.8490    1.8078   26.4511    H 1 <0>  0.0000
  29   H9       17.8303    1.5497   25.0110    H 1 <0>  0.0000
  30  H10       21.0043    7.6695   24.3165    H 1 <0>  0.3999
  31  H11       19.8007    8.9398   24.3412    H 1 <0>  0.3999
  32  H12       14.1051    1.2923   26.9776    H 1 <0>  0.3999
@<TRIPOS>BOND
    1     1     2  1
    2     1     3  1
    3     2    11  1
    4     3    10  1
    5     3    12  1
    6     4    10  1
    7     4    11  1
    8     4    15  1
    9     5     6  1
   10     5     8  1
   11     6     7  1
   12     6    18  1
   13     7     9  1
   14     7    17  1
   15     8    11  1
   16     8    17  1
   17     9    19  1
   18    13    20  1
   19    14    20  1
   20    16    20  1
   21    19    20  1
   22     1    21  1
   23     2    22  1
   24     5    23  1
   25     5    24  1
   26     6    25  1
   27     7    26  1
   28     8    27  1
   29     9    28  1
   30     9    29  1
   31    12    30  1
   32    12    31  1
   33    18    32  1

@<TRIPOS>MOLECULE
MOL
   32   33    0    0    0
SMALL
USER_CHARGES


@<TRIPOS>ATOM
   1   C1       19.5370    5.7043   25.1197  C.2 1 <0> -0.1356
   2   C2       18.6163    4.8703   25.5987  C.2 1 <0> -0.0410
   3   C3       19.0986    7.1039   24.8795  C.2 1 <0>  0.4856
   4   C4       16.9322    6.6079   25.6245  C.2 1 <0>  0.8408
   5   C5       15.6924    3.5098   25.2840  C.3 1 <0>  0.0000
   6   C6       15.4984    2.1551   25.9251  C.3 1 <0>  0.2800
   7   C7       16.7283    2.0138   26.8111  C.3 1 <0>  0.2800
   8   C8       16.3949    4.2946   26.3799  C.3 1 <0>  0.5801
   9   C9       17.9106    1.3823   26.0876  C.3 1 <0>  0.2800
  10   N1       17.8747    7.4912   25.1264  N.2 1 <0> -0.6611
  11   N2       17.3158    5.2656   25.8654 N.am 1 <0> -0.4690
  12   N3       20.0199    7.9977   24.3849 N.pl3 1 <0> -0.8501
  13   O1       18.7676   -2.3524   26.1510  O.3 1 <0> -1.0332
  14   O2       20.3972   -0.3812   26.2318  O.3 1 <0> -1.0332
  15   O3       15.7829    6.9904   25.8508  O.2 1 <0> -0.5698
  16   O4       18.9314   -0.7527   24.1606  O.2 1 <0> -1.0332
  17   O5       17.1057    3.3506   27.1934  O.3 1 <0> -0.5601
  18   O6       14.3204    2.1681   26.7285  O.3 1 <0> -0.6802
  19   O7       17.9091   -0.0135   26.3390  O.3 1 <0> -0.5513
  20   P1       19.0969   -0.9440   25.6653  P.3 1 <0>  1.3711
  21   H1       20.5546    5.4036   24.9091    H 1 <0>  0.1500
  22   H2       18.8514    3.8317   25.8033    H 1 <0>  0.1500
  23   H3       16.2475    3.4630   24.3403    H 1 <0>  0.0000
  24   H4       14.7152    3.9590   25.0607    H 1 <0>  0.0000
  25   H5       15.4164    1.3726   25.1839    H 1 <0>  0.0000
  26   H6       16.5147    1.4473   27.7110    H 1 <0>  0.0000
  27   H7       15.6696    4.8386   27.0101    H 1 <0>  0.0000
  28   H8       18.8490    1.8078   26.4511    H 1 <0>  0.0000
  29   H9       17.8303    1.5497   25.0110    H 1 <0>  0.0000
  30  H10       20.9389    7.6702   24.2092    H 1 <0>  0.3999
  31  H11       19.7250    8.9307   24.2255    H 1 <0>  0.3999
  32  H12       14.1124    1.2730   27.0065    H 1 <0>  0.3999
@<TRIPOS>BOND
    1     1     2  1
    2     1     3  1
    3     2    11  1
    4     3    10  1
    5     3    12  1
    6     4    10  1
    7     4    11  1
    8     4    15  1
    9     5     6  1
   10     5     8  1
   11     6     7  1
   12     6    18  1
   13     7     9  1
   14     7    17  1
   15     8    11  1
   16     8    17  1
   17     9    19  1
   18    13    20  1
   19    14    20  1
   20    16    20  1
   21    19    20  1
   22     1    21  1
   23     2    22  1
   24     5    23  1
   25     5    24  1
   26     6    25  1
   27     7    26  1
   28     8    27  1
   29     9    28  1
   30     9    29  1
   31    12    30  1
   32    12    31  1
   33    18    32  1

@<TRIPOS>MOLECULE
MOL
   32   33    0    0    0
SMALL
USER_CHARGES


@<TRIPOS>ATOM
   1   C1       19.4939    5.7040   25.0495  C.2 1 <0> -0.1356
   2   C2       18.5836    4.8690   25.5465  C.2 1 <0> -0.0410
   3   C3       19.0422    7.0966   24.7937  C.2 1 <0>  0.4856
   4   C4       16.8854    6.5929   25.5611  C.2 1 <0>  0.8408
   5   C5       15.6690    3.4804   25.2715  C.3 1 <0>  0.0000
   6   C6       15.4909    2.1329   25.9323  C.3 1 <0>  0.2800
   7   C7       16.7283    2.0138   26.8111  C.3 1 <0>  0.2800
   8   C8       16.3728    4.2857   26.3515  C.3 1 <0>  0.5801
   9   C9       17.9106    1.3823   26.0876  C.3 1 <0>  0.2800
  10   N1       17.8169    7.4771   25.0442  N.2 1 <0> -0.6611
  11   N2       17.2818    5.2572   25.8173 N.am 1 <0> -0.4690
  12   N3       19.9523    7.9911   24.2803 N.pl3 1 <0> -0.8501
  13   O1       18.7676   -2.3524   26.1510  O.3 1 <0> -1.0332
  14   O2       20.3972   -0.3812   26.2318  O.3 1 <0> -1.0332
  15   O3       15.7345    6.9689   25.7906  O.2 1 <0> -0.5698
  16   O4       18.9314   -0.7527   24.1606  O.2 1 <0> -1.0332
  17   O5       17.0973    3.3587   27.1725  O.3 1 <0> -0.5601
  18   O6       14.3187    2.1471   26.7440  O.3 1 <0> -0.6802
  19   O7       17.9091   -0.0135   26.3390  O.3 1 <0> -0.5513
  20   P1       19.0969   -0.9440   25.6653  P.3 1 <0>  1.3711
  21   H1       20.5125    5.4088   24.8356    H 1 <0>  0.1500
  22   H2       18.8289    3.8353   25.7633    H 1 <0>  0.1500
  23   H3       16.2177    3.4253   24.3246    H 1 <0>  0.0000
  24   H4       14.6866    3.9184   25.0493    H 1 <0>  0.0000
  25   H5       15.4101    1.3398   25.2023    H 1 <0>  0.0000
  26   H6       16.5259    1.4579   27.7201    H 1 <0>  0.0000
  27   H7       15.6476    4.8322   26.9796    H 1 <0>  0.0000
  28   H8       18.8490    1.8078   26.4511    H 1 <0>  0.0000
  29   H9       17.8303    1.5497   25.0110    H 1 <0>  0.0000
  30  H10       20.8728    7.6688   24.1023    H 1 <0>  0.3999
  31  H11       19.6486    8.9194   24.1105    H 1 <0>  0.3999
  32  H12       14.1202    1.2542   27.0356    H 1 <0>  0.3999
@<TRIPOS>BOND
    1     1     2  1
    2     1     3  1
    3     2    11  1
    4     3    10  1
    5     3    12  1
    6     4    10  1
    7     4    11  1
    8     4    15  1
    9     5     6  1
   10     5     8  1
   11     6     7  1
   12     6    18  1
   13     7     9  1
   14     7    17  1
   15     8    11  1
   16     8    17  1
   17     9    19  1
   18    13    20  1
   19    14    20  1
   20    16    20  1
   21    19    20  1
   22     1    21  1
   23     2    22  1
   24     5    23  1
   25     5    24  1
   26     6    25  1
   27     7    26  1
   28     8    27  1
   29     9    28  1
   30     9    29  1
   31    12    30  1
   32    12    31  1
   33    18    32  1

@<TRIPOS>MOLECULE
MOL
   32   33    0    0    0
SMALL
USER_CHARGES


@<TRIPOS>ATOM
   1   C1       19.4504    5.7024   24.9797  C.2 1 <0> -0.1356
   2   C2       18.5506    4.8668   25.4945  C.2 1 <0> -0.0410
   3   C3       18.9852    7.0876   24.7083  C.2 1 <0>  0.4856
   4   C4       16.8382    6.5766   25.4982  C.2 1 <0>  0.8408
   5   C5       15.6458    3.4506   25.2596  C.3 1 <0>  0.0000
   6   C6       15.4837    2.1108   25.9398  C.3 1 <0>  0.2800
   7   C7       16.7283    2.0138   26.8111  C.3 1 <0>  0.2800
   8   C8       16.3506    4.2763   26.3234  C.3 1 <0>  0.5801
   9   C9       17.9106    1.3823   26.0876  C.3 1 <0>  0.2800
  10   N1       17.7586    7.4614   24.9626  N.2 1 <0> -0.6611
  11   N2       17.2476    5.2479   25.7695 N.am 1 <0> -0.4690
  12   N3       19.8841    7.9826   24.1763 N.pl3 1 <0> -0.8501
  13   O1       18.7676   -2.3524   26.1510  O.3 1 <0> -1.0332
  14   O2       20.3972   -0.3812   26.2318  O.3 1 <0> -1.0332
  15   O3       15.6860    6.9462   25.7310  O.2 1 <0> -0.5698
  16   O4       18.9314   -0.7527   24.1606  O.2 1 <0> -1.0332
  17   O5       17.0886    3.3665   27.1516  O.3 1 <0> -0.5601
  18   O6       14.3173    2.1263   26.7598  O.3 1 <0> -0.6802
  19   O7       17.9091   -0.0135   26.3390  O.3 1 <0> -0.5513
  20   P1       19.0969   -0.9440   25.6653  P.3 1 <0>  1.3711
  21   H1       20.4698    5.4128   24.7624    H 1 <0>  0.1500
  22   H2       18.8060    3.8381   25.7235    H 1 <0>  0.1500
  23   H3       16.1881    3.3872   24.3095    H 1 <0>  0.0000
  24   H4       14.6582    3.8774   25.0387    H 1 <0>  0.0000
  25   H5       15.4043    1.3072   25.2212    H 1 <0>  0.0000
  26   H6       16.5370    1.4686   27.7290    H 1 <0>  0.0000
  27   H7       15.6253    4.8252   26.9494    H 1 <0>  0.0000
  28   H8       18.8490    1.8078   26.4511    H 1 <0>  0.0000
  29   H9       17.8303    1.5497   25.0110    H 1 <0>  0.0000
  30  H10       20.8060    7.6655   23.9960    H 1 <0>  0.3999
  31  H11       19.5715    8.9059   23.9962    H 1 <0>  0.3999
  32  H12       14.1283    1.2359   27.0648    H 1 <0>  0.3999
@<TRIPOS>BOND
    1     1     2  1
    2     1     3  1
    3     2    11  1
    4     3    10  1
    5     3    12  1
    6     4    10  1
    7     4    11  1
    8     4    15  1
    9     5     6  1
   10     5     8  1
   11     6     7  1
   12     6    18  1
   13     7     9  1
   14     7    17  1
   15     8    11  1
   16     8    17  1
   17     9    19  1
   18    13    20  1
   19    14    20  1
   20    16    20  1
   21    19    20  1
   22     1    21  1
   23     2    22  1
   24     5    23  1
   25     5    24  1
   26     6    25  1
   27     7    26  1
   28     8    27  1
   29     9    28  1
   30     9    29  1
   31    12    30  1
   32    12    31  1
   33    18    32  1

@<TRIPOS>MOLECULE
MOL
   32   33    0    0    0
SMALL
USER_CHARGES


@<TRIPOS>ATOM
   1   C1       19.4063    5.6995   24.9102  C.2 1 <0> -0.1356
   2   C2       18.5173    4.8636   25.4428  C.2 1 <0> -0.0410
   3   C3       18.9276    7.0770   24.6235  C.2 1 <0>  0.4856
   4   C4       16.7908    6.5591   25.4359  C.2 1 <0>  0.8408
   5   C5       15.6228    3.4204   25.2482  C.3 1 <0>  0.0000
   6   C6       15.4767    2.0887   25.9476  C.3 1 <0>  0.2800
   7   C7       16.7283    2.0138   26.8111  C.3 1 <0>  0.2800
   8   C8       16.3282    4.2663   26.2957  C.3 1 <0>  0.5801
   9   C9       17.9106    1.3823   26.0876  C.3 1 <0>  0.2800
  10   N1       17.6998    7.4441   24.8817  N.2 1 <0> -0.6611
  11   N2       17.2132    5.2376   25.7221 N.am 1 <0> -0.4690
  12   N3       19.8153    7.9721   24.0730 N.pl3 1 <0> -0.8501
  13   O1       18.7676   -2.3524   26.1510  O.3 1 <0> -1.0332
  14   O2       20.3972   -0.3812   26.2318  O.3 1 <0> -1.0332
  15   O3       15.6371    6.9224   25.6720  O.2 1 <0> -0.5698
  16   O4       18.9314   -0.7527   24.1606  O.2 1 <0> -1.0332
  17   O5       17.0798    3.3739   27.1306  O.3 1 <0> -0.5601
  18   O6       14.3161    2.1057   26.7758  O.3 1 <0> -0.6802
  19   O7       17.9091   -0.0135   26.3390  O.3 1 <0> -0.5513
  20   P1       19.0969   -0.9440   25.6653  P.3 1 <0>  1.3711
  21   H1       20.4265    5.4154   24.6894    H 1 <0>  0.1500
  22   H2       18.7829    3.8403   25.6838    H 1 <0>  0.1500
  23   H3       16.1587    3.3486   24.2952    H 1 <0>  0.0000
  24   H4       14.6300    3.8360   25.0288    H 1 <0>  0.0000
  25   H5       15.3989    1.2748   25.2406    H 1 <0>  0.0000
  26   H6       16.5482    1.4795   27.7376    H 1 <0>  0.0000
  27   H7       15.6029    4.8177   26.9194    H 1 <0>  0.0000
  28   H8       18.8490    1.8078   26.4511    H 1 <0>  0.0000
  29   H9       17.8303    1.5497   25.0110    H 1 <0>  0.0000
  30  H10       20.7384    7.6602   23.8902    H 1 <0>  0.3999
  31  H11       19.4936    8.8903   23.8826    H 1 <0>  0.3999
  32  H12       14.1367    1.2180   27.0943    H 1 <0>  0.3999
@<TRIPOS>BOND
    1     1     2  1
    2     1     3  1
    3     2    11  1
    4     3    10  1
    5     3    12  1
    6     4    10  1
    7     4    11  1
    8     4    15  1
    9     5     6  1
   10     5     8  1
   11     6     7  1
   12     6    18  1
   13     7     9  1
   14     7    17  1
   15     8    11  1
   16     8    17  1
   17     9    19  1
   18    13    20  1
   19    14    20  1
   20    16    20  1
   21    19    20  1
   22     1    21  1
   23     2    22  1
   24     5    23  1
   25     5    24  1
   26     6    25  1
   27     7    26  1
   28     8    27  1
   29     9    28  1
   30     9    29  1
   31    12    30  1
   32    12    31  1
   33    18    32  1

@<TRIPOS>MOLECULE
MOL
   32   33    0    0    0
SMALL
USER_CHARGES


@<TRIPOS>ATOM
   1   C1       19.3617    5.6953   24.8411  C.2 1 <0> -0.1356
   2   C2       18.4836    4.8594   25.3914  C.2 1 <0> -0.0410
   3   C3       18.8696    7.0648   24.5393  C.2 1 <0>  0.4856
   4   C4       16.7430    6.5404   25.3741  C.2 1 <0>  0.8408
   5   C5       15.5999    3.3899   25.2375  C.3 1 <0>  0.0000
   6   C6       15.4700    2.0666   25.9559  C.3 1 <0>  0.2800
   7   C7       16.7283    2.0138   26.8111  C.3 1 <0>  0.2800
   8   C8       16.3058    4.2557   26.2682  C.3 1 <0>  0.5801
   9   C9       17.9106    1.3823   26.0876  C.3 1 <0>  0.2800
  10   N1       17.6406    7.4252   24.8014  N.2 1 <0> -0.6611
  11   N2       17.1784    5.2264   25.6752 N.am 1 <0> -0.4690
  12   N3       19.7457    7.9596   23.9702 N.pl3 1 <0> -0.8501
  13   O1       18.7676   -2.3524   26.1510  O.3 1 <0> -1.0332
  14   O2       20.3972   -0.3812   26.2318  O.3 1 <0> -1.0332
  15   O3       15.5881    6.8973   25.6138  O.2 1 <0> -0.5698
  16   O4       18.9314   -0.7527   24.1606  O.2 1 <0> -1.0332
  17   O5       17.0707    3.3810   27.1097  O.3 1 <0> -0.5601
  18   O6       14.3152    2.0853   26.7922  O.3 1 <0> -0.6802
  19   O7       17.9091   -0.0135   26.3390  O.3 1 <0> -0.5513
  20   P1       19.0969   -0.9440   25.6653  P.3 1 <0>  1.3711
  21   H1       20.3827    5.4166   24.6167    H 1 <0>  0.1500
  22   H2       18.7594    3.8417   25.6443    H 1 <0>  0.1500
  23   H3       16.1295    3.3096   24.2816    H 1 <0>  0.0000
  24   H4       14.6021    3.7943   25.0197    H 1 <0>  0.0000
  25   H5       15.3938    1.2426   25.2605    H 1 <0>  0.0000
  26   H6       16.5593    1.4907   27.7460    H 1 <0>  0.0000
  27   H7       15.5804    4.8095   26.8897    H 1 <0>  0.0000
  28   H8       18.8490    1.8078   26.4511    H 1 <0>  0.0000
  29   H9       17.8303    1.5497   25.0110    H 1 <0>  0.0000
  30  H10       20.6701    7.6528   23.7850    H 1 <0>  0.3999
  31  H11       19.4151    8.8724   23.7698    H 1 <0>  0.3999
  32  H12       14.1456    1.2006   27.1239    H 1 <0>  0.3999
@<TRIPOS>BOND
    1     1     2  1
    2     1     3  1
    3     2    11  1
    4     3    10  1
    5     3    12  1
    6     4    10  1
    7     4    11  1
    8     4    15  1
    9     5     6  1
   10     5     8  1
   11     6     7  1
   12     6    18  1
   13     7     9  1
   14     7    17  1
   15     8    11  1
   16     8    17  1
   17     9    19  1
   18    13    20  1
   19    14    20  1
   20    16    20  1
   21    19    20  1
   22     1    21  1
   23     2    22  1
   24     5    23  1
   25     5    24  1
   26     6    25  1
   27     7    26  1
   28     8    27  1
   29     9    28  1
   30     9    29  1
   31    12    30  1
   32    12    31  1
   33    18    32  1

@<TRIPOS>MOLECULE
MOL
   32   33    0    0    0
SMALL
USER_CHARGES


@<TRIPOS>ATOM
   1   C1       19.3167    5.6898   24.7723  C.2 1 <0> -0.1356
   2   C2       18.4495    4.8542   25.3403  C.2 1 <0> -0.0410
   3   C3       18.8110    7.0510   24.4557  C.2 1 <0>  0.4856
   4   C4       16.6949    6.5205   25.3130  C.2 1 <0>  0.8408
   5   C5       15.5772    3.3590   25.2273  C.3 1 <0>  0.0000
   6   C6       15.4635    2.0446   25.9644  C.3 1 <0>  0.2800
   7   C7       16.7283    2.0138   26.8111  C.3 1 <0>  0.2800
   8   C8       16.2832    4.2446   26.2410  C.3 1 <0>  0.5801
   9   C9       17.9106    1.3823   26.0876  C.3 1 <0>  0.2800
  10   N1       17.5810    7.4047   24.7219  N.2 1 <0> -0.6611
  11   N2       17.1434    5.2143   25.6286 N.am 1 <0> -0.4690
  12   N3       19.6756    7.9451   23.8682 N.pl3 1 <0> -0.8501
  13   O1       18.7676   -2.3524   26.1510  O.3 1 <0> -1.0332
  14   O2       20.3972   -0.3812   26.2318  O.3 1 <0> -1.0332
  15   O3       15.5388    6.8710   25.5562  O.2 1 <0> -0.5698
  16   O4       18.9314   -0.7527   24.1606  O.2 1 <0> -1.0332
  17   O5       17.0614    3.3877   27.0887  O.3 1 <0> -0.5601
  18   O6       14.3146    2.0652   26.8088  O.3 1 <0> -0.6802
  19   O7       17.9091   -0.0135   26.3390  O.3 1 <0> -0.5513
  20   P1       19.0969   -0.9440   25.6653  P.3 1 <0>  1.3711
  21   H1       20.3383    5.4165   24.5443    H 1 <0>  0.1500
  22   H2       18.7357    3.8423   25.6049    H 1 <0>  0.1500
  23   H3       16.1006    3.2702   24.2687    H 1 <0>  0.0000
  24   H4       14.5746    3.7522   25.0113    H 1 <0>  0.0000
  25   H5       15.3892    1.2106   25.2808    H 1 <0>  0.0000
  26   H6       16.5704    1.5021   27.7542    H 1 <0>  0.0000
  27   H7       15.5577    4.8008   26.8603    H 1 <0>  0.0000
  28   H8       18.8490    1.8078   26.4511    H 1 <0>  0.0000
  29   H9       17.8303    1.5497   25.0110    H 1 <0>  0.0000
  30  H10       20.6011    7.6435   23.6804    H 1 <0>  0.3999
  31  H11       19.3359    8.8524   23.6579    H 1 <0>  0.3999
  32  H12       14.1548    1.1836   27.1537    H 1 <0>  0.3999
@<TRIPOS>BOND
    1     1     2  1
    2     1     3  1
    3     2    11  1
    4     3    10  1
    5     3    12  1
    6     4    10  1
    7     4    11  1
    8     4    15  1
    9     5     6  1
   10     5     8  1
   11     6     7  1
   12     6    18  1
   13     7     9  1
   14     7    17  1
   15     8    11  1
   16     8    17  1
   17     9    19  1
   18    13    20  1
   19    14    20  1
   20    16    20  1
   21    19    20  1
   22     1    21  1
   23     2    22  1
   24     5    23  1
   25     5    24  1
   26     6    25  1
   27     7    26  1
   28     8    27  1
   29     9    28  1
   30     9    29  1
   31    12    30  1
   32    12    31  1
   33    18    32  1

@<TRIPOS>MOLECULE
MOL
   32   33    0    0    0
SMALL
USER_CHARGES


@<TRIPOS>ATOM
   1   C1       19.2713    5.6830   24.7040  C.2 1 <0> -0.1356
   2   C2       18.4152    4.8481   25.2896  C.2 1 <0> -0.0410
   3   C3       18.7520    7.0355   24.3727  C.2 1 <0>  0.4856
   4   C4       16.6466    6.4993   25.2525  C.2 1 <0>  0.8408
   5   C5       15.5547    3.3279   25.2177  C.3 1 <0>  0.0000
   6   C6       15.4572    2.0227   25.9733  C.3 1 <0>  0.2800
   7   C7       16.7283    2.0138   26.8111  C.3 1 <0>  0.2800
   8   C8       16.2606    4.2329   26.2142  C.3 1 <0>  0.5801
   9   C9       17.9106    1.3823   26.0876  C.3 1 <0>  0.2800
  10   N1       17.5210    7.3827   24.6430  N.2 1 <0> -0.6611
  11   N2       17.1082    5.2013   25.5824 N.am 1 <0> -0.4690
  12   N3       19.6048    7.9287   23.7669 N.pl3 1 <0> -0.8501
  13   O1       18.7676   -2.3524   26.1510  O.3 1 <0> -1.0332
  14   O2       20.3972   -0.3812   26.2318  O.3 1 <0> -1.0332
  15   O3       15.4894    6.8436   25.4994  O.2 1 <0> -0.5698
  16   O4       18.9314   -0.7527   24.1606  O.2 1 <0> -1.0332
  17   O5       17.0519    3.3940   27.0676  O.3 1 <0> -0.5601
  18   O6       14.3143    2.0453   26.8257  O.3 1 <0> -0.6802
  19   O7       17.9091   -0.0135   26.3390  O.3 1 <0> -0.5513
  20   P1       19.0969   -0.9440   25.6653  P.3 1 <0>  1.3711
  21   H1       20.2934    5.4150   24.4723    H 1 <0>  0.1500
  22   H2       18.7117    3.8423   25.5657    H 1 <0>  0.1500
  23   H3       16.0719    3.2303   24.2566    H 1 <0>  0.0000
  24   H4       14.5473    3.7098   25.0038    H 1 <0>  0.0000
  25   H5       15.3850    1.1789   25.3016    H 1 <0>  0.0000
  26   H6       16.5814    1.5136   27.7622    H 1 <0>  0.0000
  27   H7       15.5349    4.7914   26.8311    H 1 <0>  0.0000
  28   H8       18.8490    1.8078   26.4511    H 1 <0>  0.0000
  29   H9       17.8303    1.5497   25.0110    H 1 <0>  0.0000
  30  H10       20.5314    7.6322   23.5764    H 1 <0>  0.3999
  31  H11       19.2561    8.8302   23.5468    H 1 <0>  0.3999
  32  H12       14.1643    1.1672   27.1836    H 1 <0>  0.3999
@<TRIPOS>BOND
    1     1     2  1
    2     1     3  1
    3     2    11  1
    4     3    10  1
    5     3    12  1
    6     4    10  1
    7     4    11  1
    8     4    15  1
    9     5     6  1
   10     5     8  1
   11     6     7  1
   12     6    18  1
   13     7     9  1
   14     7    17  1
   15     8    11  1
   16     8    17  1
   17     9    19  1
   18    13    20  1
   19    14    20  1
   20    16    20  1
   21    19    20  1
   22     1    21  1
   23     2    22  1
   24     5    23  1
   25     5    24  1
   26     6    25  1
   27     7    26  1
   28     8    27  1
   29     9    28  1
   30     9    29  1
   31    12    30  1
   32    12    31  1
   33    18    32  1

@<TRIPOS>MOLECULE
MOL
   32   33    0    0    0
SMALL
USER_CHARGES


@<TRIPOS>ATOM
   1   C1       19.2254    5.6749   24.6361  C.2 1 <0> -0.1356
   2   C2       18.3805    4.8410   25.2391  C.2 1 <0> -0.0410
   3   C3       18.6925    7.0185   24.2904  C.2 1 <0>  0.4856
   4   C4       16.5980    6.4769   25.1927  C.2 1 <0>  0.8408
   5   C5       15.5323    3.2964   25.2087  C.3 1 <0>  0.0000
   6   C6       15.4512    2.0009   25.9826  C.3 1 <0>  0.2800
   7   C7       16.7283    2.0138   26.8111  C.3 1 <0>  0.2800
   8   C8       16.2378    4.2206   26.1877  C.3 1 <0>  0.5801
   9   C9       17.9106    1.3823   26.0876  C.3 1 <0>  0.2800
  10   N1       17.4606    7.3591   24.5649  N.2 1 <0> -0.6611
  11   N2       17.0728    5.1873   25.5367 N.am 1 <0> -0.4690
  12   N3       19.5334    7.9104   23.6663 N.pl3 1 <0> -0.8501
  13   O1       18.7676   -2.3524   26.1510  O.3 1 <0> -1.0332
  14   O2       20.3972   -0.3812   26.2318  O.3 1 <0> -1.0332
  15   O3       15.4398    6.8149   25.4433  O.2 1 <0> -0.5698
  16   O4       18.9314   -0.7527   24.1606  O.2 1 <0> -1.0332
  17   O5       17.0422    3.4000   27.0466  O.3 1 <0> -0.5601
  18   O6       14.3143    2.0256   26.8429  O.3 1 <0> -0.6802
  19   O7       17.9091   -0.0135   26.3390  O.3 1 <0> -0.5513
  20   P1       19.0969   -0.9440   25.6653  P.3 1 <0>  1.3711
  21   H1       20.2481    5.4122   24.4006    H 1 <0>  0.1500
  22   H2       18.6873    3.8415   25.5267    H 1 <0>  0.1500
  23   H3       16.0435    3.1901   24.2453    H 1 <0>  0.0000
  24   H4       14.5203    3.6671   24.9970    H 1 <0>  0.0000
  25   H5       15.3812    1.1475   25.3229    H 1 <0>  0.0000
  26   H6       16.5924    1.5254   27.7699    H 1 <0>  0.0000
  27   H7       15.5120    4.7815   26.8023    H 1 <0>  0.0000
  28   H8       18.8490    1.8078   26.4511    H 1 <0>  0.0000
  29   H9       17.8303    1.5497   25.0110    H 1 <0>  0.0000
  30  H10       20.4611    7.6189   23.4731    H 1 <0>  0.3999
  31  H11       19.1756    8.8059   23.4366    H 1 <0>  0.3999
  32  H12       14.1742    1.1512   27.2137    H 1 <0>  0.3999
@<TRIPOS>BOND
    1     1     2  1
    2     1     3  1
    3     2    11  1
    4     3    10  1
    5     3    12  1
    6     4    10  1
    7     4    11  1
    8     4    15  1
    9     5     6  1
   10     5     8  1
   11     6     7  1
   12     6    18  1
   13     7     9  1
   14     7    17  1
   15     8    11  1
   16     8    17  1
   17     9    19  1
   18    13    20  1
   19    14    20  1
   20    16    20  1
   21    19    20  1
   22     1    21  1
   23     2    22  1
   24     5    23  1
   25     5    24  1
   26     6    25  1
   27     7    26  1
   28     8    27  1
   29     9    28  1
   30     9    29  1
   31    12    30  1
   32    12    31  1
   33    18    32  1

@<TRIPOS>MOLECULE
MOL
   32   33    0    0    0
SMALL
USER_CHARGES


@<TRIPOS>ATOM
   1   C1       19.1791    5.6655   24.5687  C.2 1 <0> -0.1356
   2   C2       18.3456    4.8329   25.1891  C.2 1 <0> -0.0410
   3   C3       18.6325    6.9998   24.2087  C.2 1 <0>  0.4856
   4   C4       16.5492    6.4533   25.1335  C.2 1 <0>  0.8408
   5   C5       15.5102    3.2646   25.2002  C.3 1 <0>  0.0000
   6   C6       15.4454    1.9791   25.9922  C.3 1 <0>  0.2800
   7   C7       16.7283    2.0138   26.8111  C.3 1 <0>  0.2800
   8   C8       16.2149    4.2078   26.1615  C.3 1 <0>  0.5801
   9   C9       17.9106    1.3823   26.0876  C.3 1 <0>  0.2800
  10   N1       17.3999    7.3340   24.4876  N.2 1 <0> -0.6611
  11   N2       17.0372    5.1724   25.4915 N.am 1 <0> -0.4690
  12   N3       19.4615    7.8900   23.5665 N.pl3 1 <0> -0.8501
  13   O1       18.7676   -2.3524   26.1510  O.3 1 <0> -1.0332
  14   O2       20.3972   -0.3812   26.2318  O.3 1 <0> -1.0332
  15   O3       15.3900    6.7852   25.3879  O.2 1 <0> -0.5698
  16   O4       18.9314   -0.7527   24.1606  O.2 1 <0> -1.0332
  17   O5       17.0324    3.4056   27.0255  O.3 1 <0> -0.5601
  18   O6       14.3146    2.0061   26.8603  O.3 1 <0> -0.6802
  19   O7       17.9091   -0.0135   26.3390  O.3 1 <0> -0.5513
  20   P1       19.0969   -0.9440   25.6653  P.3 1 <0>  1.3711
  21   H1       20.2022    5.4081   24.3293    H 1 <0>  0.1500
  22   H2       18.6628    3.8399   25.4878    H 1 <0>  0.1500
  23   H3       16.0153    3.1494   24.2347    H 1 <0>  0.0000
  24   H4       14.4936    3.6241   24.9909    H 1 <0>  0.0000
  25   H5       15.3778    1.1163   25.3446    H 1 <0>  0.0000
  26   H6       16.6034    1.5374   27.7774    H 1 <0>  0.0000
  27   H7       15.4889    4.7710   26.7738    H 1 <0>  0.0000
  28   H8       18.8490    1.8078   26.4511    H 1 <0>  0.0000
  29   H9       17.8303    1.5497   25.0110    H 1 <0>  0.0000
  30  H10       20.3902    7.6037   23.3705    H 1 <0>  0.3999
  31  H11       19.0946    8.7794   23.3274    H 1 <0>  0.3999
  32  H12       14.1844    1.1357   27.2440    H 1 <0>  0.3999
@<TRIPOS>BOND
    1     1     2  1
    2     1     3  1
    3     2    11  1
    4     3    10  1
    5     3    12  1
    6     4    10  1
    7     4    11  1
    8     4    15  1
    9     5     6  1
   10     5     8  1
   11     6     7  1
   12     6    18  1
   13     7     9  1
   14     7    17  1
   15     8    11  1
   16     8    17  1
   17     9    19  1
   18    13    20  1
   19    14    20  1
   20    16    20  1
   21    19    20  1
   22     1    21  1
   23     2    22  1
   24     5    23  1
   25     5    24  1
   26     6    25  1
   27     7    26  1
   28     8    27  1
   29     9    28  1
   30     9    29  1
   31    12    30  1
   32    12    31  1
   33    18    32  1

@<TRIPOS>MOLECULE
MOL
   32   33    0    0    0
SMALL
USER_CHARGES


@<TRIPOS>ATOM
   1   C1       19.1324    5.6548   24.5017  C.2 1 <0> -0.1356
   2   C2       18.3103    4.8238   25.1394  C.2 1 <0> -0.0410
   3   C3       18.5721    6.9795   24.1277  C.2 1 <0>  0.4856
   4   C4       16.5001    6.4285   25.0750  C.2 1 <0>  0.8408
   5   C5       15.4883    3.2326   25.1924  C.3 1 <0>  0.0000
   6   C6       15.4399    1.9574   26.0021  C.3 1 <0>  0.2800
   7   C7       16.7283    2.0138   26.8111  C.3 1 <0>  0.2800
   8   C8       16.1920    4.1945   26.1357  C.3 1 <0>  0.5801
   9   C9       17.9106    1.3823   26.0876  C.3 1 <0>  0.2800
  10   N1       17.3388    7.3073   24.4111  N.2 1 <0> -0.6611
  11   N2       17.0014    5.1567   25.4467 N.am 1 <0> -0.4690
  12   N3       19.3891    7.8678   23.4676 N.pl3 1 <0> -0.8501
  13   O1       18.7676   -2.3524   26.1510  O.3 1 <0> -1.0332
  14   O2       20.3972   -0.3812   26.2318  O.3 1 <0> -1.0332
  15   O3       15.3401    6.7542   25.3334  O.2 1 <0> -0.5698
  16   O4       18.9314   -0.7527   24.1606  O.2 1 <0> -1.0332
  17   O5       17.0223    3.4109   27.0045  O.3 1 <0> -0.5601
  18   O6       14.3152    1.9869   26.8780  O.3 1 <0> -0.6802
  19   O7       17.9091   -0.0135   26.3390  O.3 1 <0> -0.5513
  20   P1       19.0969   -0.9440   25.6653  P.3 1 <0>  1.3711
  21   H1       20.1559    5.4026   24.2584    H 1 <0>  0.1500
  22   H2       18.6379    3.8377   25.4492    H 1 <0>  0.1500
  23   H3       15.9874    3.1084   24.2248    H 1 <0>  0.0000
  24   H4       14.4673    3.5807   24.9857    H 1 <0>  0.0000
  25   H5       15.3749    1.0853   25.3667    H 1 <0>  0.0000
  26   H6       16.6143    1.5495   27.7846    H 1 <0>  0.0000
  27   H7       15.4657    4.7600   26.7455    H 1 <0>  0.0000
  28   H8       18.8490    1.8078   26.4511    H 1 <0>  0.0000
  29   H9       17.8303    1.5497   25.0110    H 1 <0>  0.0000
  30  H10       20.3187    7.5864   23.2687    H 1 <0>  0.3999
  31  H11       19.0130    8.7507   23.2191    H 1 <0>  0.3999
  32  H12       14.1950    1.1208   27.2743    H 1 <0>  0.3999
@<TRIPOS>BOND
    1     1     2  1
    2     1     3  1
    3     2    11  1
    4     3    10  1
    5     3    12  1
    6     4    10  1
    7     4    11  1
    8     4    15  1
    9     5     6  1
   10     5     8  1
   11     6     7  1
   12     6    18  1
   13     7     9  1
   14     7    17  1
   15     8    11  1
   16     8    17  1
   17     9    19  1
   18    13    20  1
   19    14    20  1
   20    16    20  1
   21    19    20  1
   22     1    21  1
   23     2    22  1
   24     5    23  1
   25     5    24  1
   26     6    25  1
   27     7    26  1
   28     8    27  1
   29     9    28  1
   30     9    29  1
   31    12    30  1
   32    12    31  1
   33    18    32  1

@<TRIPOS>MOLECULE
MOL
   32   33    0    0    0
SMALL
USER_CHARGES


@<TRIPOS>ATOM
   1   C1       19.0853    5.6428   24.4352  C.2 1 <0> -0.1356
   2   C2       18.2748    4.8138   25.0900  C.2 1 <0> -0.0410
   3   C3       18.5114    6.9577   24.0475  C.2 1 <0>  0.4856
   4   C4       16.4508    6.4024   25.0172  C.2 1 <0>  0.8408
   5   C5       15.4666    3.2002   25.1852  C.3 1 <0>  0.0000
   6   C6       15.4347    1.9358   26.0123  C.3 1 <0>  0.2800
   7   C7       16.7283    2.0138   26.8111  C.3 1 <0>  0.2800
   8   C8       16.1690    4.1807   26.1102  C.3 1 <0>  0.5801
   9   C9       17.9106    1.3823   26.0876  C.3 1 <0>  0.2800
  10   N1       17.2774    7.2791   24.3354  N.2 1 <0> -0.6611
  11   N2       16.9653    5.1400   25.4024 N.am 1 <0> -0.4690
  12   N3       19.3161    7.8436   23.3694 N.pl3 1 <0> -0.8501
  13   O1       18.7676   -2.3524   26.1510  O.3 1 <0> -1.0332
  14   O2       20.3972   -0.3812   26.2318  O.3 1 <0> -1.0332
  15   O3       15.2900    6.7221   25.2796  O.2 1 <0> -0.5698
  16   O4       18.9314   -0.7527   24.1606  O.2 1 <0> -1.0332
  17   O5       17.0120    3.4157   26.9834  O.3 1 <0> -0.5601
  18   O6       14.3160    1.9679   26.8960  O.3 1 <0> -0.6802
  19   O7       17.9091   -0.0135   26.3390  O.3 1 <0> -0.5513
  20   P1       19.0969   -0.9440   25.6653  P.3 1 <0>  1.3711
  21   H1       20.1091    5.3958   24.1879    H 1 <0>  0.1500
  22   H2       18.6128    3.8347   25.4108    H 1 <0>  0.1500
  23   H3       15.9597    3.0671   24.2157    H 1 <0>  0.0000
  24   H4       14.4412    3.5371   24.9812    H 1 <0>  0.0000
  25   H5       15.3723    1.0547   25.3893    H 1 <0>  0.0000
  26   H6       16.6252    1.5619   27.7916    H 1 <0>  0.0000
  27   H7       15.4424    4.7483   26.7176    H 1 <0>  0.0000
  28   H8       18.8490    1.8078   26.4511    H 1 <0>  0.0000
  29   H9       17.8303    1.5497   25.0110    H 1 <0>  0.0000
  30  H10       20.2466    7.5672   23.1676    H 1 <0>  0.3999
  31  H11       18.9309    8.7200   23.1118    H 1 <0>  0.3999
  32  H12       14.2059    1.1063   27.3048    H 1 <0>  0.3999
@<TRIPOS>BOND
    1     1     2  1
    2     1     3  1
    3     2    11  1
    4     3    10  1
    5     3    12  1
    6     4    10  1
    7     4    11  1
    8     4    15  1
    9     5     6  1
   10     5     8  1
   11     6     7  1
   12     6    18  1
   13     7     9  1
   14     7    17  1
   15     8    11  1
   16     8    17  1
   17     9    19  1
   18    13    20  1
   19    14    20  1
   20    16    20  1
   21    19    20  1
   22     1    21  1
   23     2    22  1
   24     5    23  1
   25     5    24  1
   26     6    25  1
   27     7    26  1
   28     8    27  1
   29     9    28  1
   30     9    29  1
   31    12    30  1
   32    12    31  1
   33    18    32  1

@<TRIPOS>MOLECULE
MOL
   32   33    0    0    0
SMALL
USER_CHARGES


@<TRIPOS>ATOM
   1   C1       19.0379    5.6295   24.3693  C.2 1 <0> -0.1356
   2   C2       18.2390    4.8028   25.0411  C.2 1 <0> -0.0410
   3   C3       18.4502    6.9342   23.9680  C.2 1 <0>  0.4856
   4   C4       16.4014    6.3753   24.9601  C.2 1 <0>  0.8408
   5   C5       15.4451    3.1676   25.1785  C.3 1 <0>  0.0000
   6   C6       15.4297    1.9143   26.0229  C.3 1 <0>  0.2800
   7   C7       16.7283    2.0138   26.8111  C.3 1 <0>  0.2800
   8   C8       16.1459    4.1663   26.0851  C.3 1 <0>  0.5801
   9   C9       17.9106    1.3823   26.0876  C.3 1 <0>  0.2800
  10   N1       17.2157    7.2494   24.2605  N.2 1 <0> -0.6611
  11   N2       16.9291    5.1224   25.3585 N.am 1 <0> -0.4690
  12   N3       19.2426    7.8174   23.2722 N.pl3 1 <0> -0.8501
  13   O1       18.7676   -2.3524   26.1510  O.3 1 <0> -1.0332
  14   O2       20.3972   -0.3812   26.2318  O.3 1 <0> -1.0332
  15   O3       15.2399    6.6889   25.2266  O.2 1 <0> -0.5698
  16   O4       18.9314   -0.7527   24.1606  O.2 1 <0> -1.0332
  17   O5       17.0015    3.4202   26.9624  O.3 1 <0> -0.5601
  18   O6       14.3172    1.9492   26.9142  O.3 1 <0> -0.6802
  19   O7       17.9091   -0.0135   26.3390  O.3 1 <0> -0.5513
  20   P1       19.0969   -0.9440   25.6653  P.3 1 <0>  1.3711
  21   H1       20.0619    5.3876   24.1178    H 1 <0>  0.1500
  22   H2       18.5875    3.8310   25.3726    H 1 <0>  0.1500
  23   H3       15.9323    3.0254   24.2074    H 1 <0>  0.0000
  24   H4       14.4155    3.4932   24.9775    H 1 <0>  0.0000
  25   H5       15.3702    1.0243   25.4123    H 1 <0>  0.0000
  26   H6       16.6360    1.5744   27.7984    H 1 <0>  0.0000
  27   H7       15.4190    4.7361   26.6901    H 1 <0>  0.0000
  28   H8       18.8490    1.8078   26.4511    H 1 <0>  0.0000
  29   H9       17.8303    1.5497   25.0110    H 1 <0>  0.0000
  30  H10       20.1739    7.5461   23.0673    H 1 <0>  0.3999
  31  H11       18.8483    8.6870   23.0055    H 1 <0>  0.3999
  32  H12       14.2172    1.0923   27.3354    H 1 <0>  0.3999
@<TRIPOS>BOND
    1     1     2  1
    2     1     3  1
    3     2    11  1
    4     3    10  1
    5     3    12  1
    6     4    10  1
    7     4    11  1
    8     4    15  1
    9     5     6  1
   10     5     8  1
   11     6     7  1
   12     6    18  1
   13     7     9  1
   14     7    17  1
   15     8    11  1
   16     8    17  1
   17     9    19  1
   18    13    20  1
   19    14    20  1
   20    16    20  1
   21    19    20  1
   22     1    21  1
   23     2    22  1
   24     5    23  1
   25     5    24  1
   26     6    25  1
   27     7    26  1
   28     8    27  1
   29     9    28  1
   30     9    29  1
   31    12    30  1
   32    12    31  1
   33    18    32  1

@<TRIPOS>MOLECULE
MOL
   32   33    0    0    0
SMALL
USER_CHARGES


@<TRIPOS>ATOM
   1   C1       18.9901    5.6149   24.3039  C.2 1 <0> -0.1356
   2   C2       18.2029    4.7909   24.9926  C.2 1 <0> -0.0410
   3   C3       18.3886    6.9092   23.8892  C.2 1 <0>  0.4856
   4   C4       16.3517    6.3469   24.9037  C.2 1 <0>  0.8408
   5   C5       15.4238    3.1347   25.1725  C.3 1 <0>  0.0000
   6   C6       15.4249    1.8929   26.0338  C.3 1 <0>  0.2800
   7   C7       16.7283    2.0138   26.8111  C.3 1 <0>  0.2800
   8   C8       16.1228    4.1513   26.0603  C.3 1 <0>  0.5801
   9   C9       17.9106    1.3823   26.0876  C.3 1 <0>  0.2800
  10   N1       17.1537    7.2181   24.1865  N.2 1 <0> -0.6611
  11   N2       16.8928    5.1040   25.3152 N.am 1 <0> -0.4690
  12   N3       19.1686    7.7894   23.1758 N.pl3 1 <0> -0.8501
  13   O1       18.7676   -2.3524   26.1510  O.3 1 <0> -1.0332
  14   O2       20.3972   -0.3812   26.2318  O.3 1 <0> -1.0332
  15   O3       15.1896    6.6545   25.1745  O.2 1 <0> -0.5698
  16   O4       18.9314   -0.7527   24.1606  O.2 1 <0> -1.0332
  17   O5       16.9909    3.4244   26.9414  O.3 1 <0> -0.5601
  18   O6       14.3186    1.9307   26.9326  O.3 1 <0> -0.6802
  19   O7       17.9091   -0.0135   26.3390  O.3 1 <0> -0.5513
  20   P1       19.0969   -0.9440   25.6653  P.3 1 <0>  1.3711
  21   H1       20.0142    5.3781   24.0482    H 1 <0>  0.1500
  22   H2       18.5619    3.8265   25.3346    H 1 <0>  0.1500
  23   H3       15.9053    2.9833   24.1998    H 1 <0>  0.0000
  24   H4       14.3902    3.4491   24.9746    H 1 <0>  0.0000
  25   H5       15.3685    0.9943   25.4358    H 1 <0>  0.0000
  26   H6       16.6468    1.5871   27.8049    H 1 <0>  0.0000
  27   H7       15.3955    4.7233   26.6628    H 1 <0>  0.0000
  28   H8       18.8490    1.8078   26.4511    H 1 <0>  0.0000
  29   H9       17.8303    1.5497   25.0110    H 1 <0>  0.0000
  30  H10       20.1007    7.5229   22.9678    H 1 <0>  0.3999
  31  H11       18.7652    8.6520   22.9003    H 1 <0>  0.3999
  32  H12       14.2288    1.0789   27.3661    H 1 <0>  0.3999
@<TRIPOS>BOND
    1     1     2  1
    2     1     3  1
    3     2    11  1
    4     3    10  1
    5     3    12  1
    6     4    10  1
    7     4    11  1
    8     4    15  1
    9     5     6  1
   10     5     8  1
   11     6     7  1
   12     6    18  1
   13     7     9  1
   14     7    17  1
   15     8    11  1
   16     8    17  1
   17     9    19  1
   18    13    20  1
   19    14    20  1
   20    16    20  1
   21    19    20  1
   22     1    21  1
   23     2    22  1
   24     5    23  1
   25     5    24  1
   26     6    25  1
   27     7    26  1
   28     8    27  1
   29     9    28  1
   30     9    29  1
   31    12    30  1
   32    12    31  1
   33    18    32  1

@<TRIPOS>MOLECULE
MOL
   32   33    0    0    0
SMALL
USER_CHARGES


@<TRIPOS>ATOM
   1   C1       18.9419    5.5991   24.2390  C.2 1 <0> -0.1356
   2   C2       18.1666    4.7780   24.9445  C.2 1 <0> -0.0410
   3   C3       18.3267    6.8826   23.8113  C.2 1 <0>  0.4856
   4   C4       16.3019    6.3173   24.8481  C.2 1 <0>  0.8408
   5   C5       15.4028    3.1016   25.1670  C.3 1 <0>  0.0000
   6   C6       15.4204    1.8717   26.0450  C.3 1 <0>  0.2800
   7   C7       16.7283    2.0138   26.8111  C.3 1 <0>  0.2800
   8   C8       16.0996    4.1359   26.0359  C.3 1 <0>  0.5801
   9   C9       17.9106    1.3823   26.0876  C.3 1 <0>  0.2800
  10   N1       17.0914    7.1853   24.1133  N.2 1 <0> -0.6611
  11   N2       16.8563    5.0846   25.2724 N.am 1 <0> -0.4690
  12   N3       19.0942    7.7594   23.0804 N.pl3 1 <0> -0.8501
  13   O1       18.7676   -2.3524   26.1510  O.3 1 <0> -1.0332
  14   O2       20.3972   -0.3812   26.2318  O.3 1 <0> -1.0332
  15   O3       15.1392    6.6190   25.1232  O.2 1 <0> -0.5698
  16   O4       18.9314   -0.7527   24.1606  O.2 1 <0> -1.0332
  17   O5       16.9800    3.4281   26.9204  O.3 1 <0> -0.5601
  18   O6       14.3203    1.9125   26.9513  O.3 1 <0> -0.6802
  19   O7       17.9091   -0.0135   26.3390  O.3 1 <0> -0.5513
  20   P1       19.0969   -0.9440   25.6653  P.3 1 <0>  1.3711
  21   H1       19.9661    5.3672   23.9791    H 1 <0>  0.1500
  22   H2       18.5360    3.8214   25.2969    H 1 <0>  0.1500
  23   H3       15.8785    2.9410   24.1930    H 1 <0>  0.0000
  24   H4       14.3651    3.4047   24.9724    H 1 <0>  0.0000
  25   H5       15.3672    0.9645   25.4596    H 1 <0>  0.0000
  26   H6       16.6575    1.6000   27.8111    H 1 <0>  0.0000
  27   H7       15.3720    4.7100   26.6359    H 1 <0>  0.0000
  28   H8       18.8490    1.8078   26.4511    H 1 <0>  0.0000
  29   H9       17.8303    1.5497   25.0110    H 1 <0>  0.0000
  30  H10       20.0269    7.4978   22.8692    H 1 <0>  0.3999
  31  H11       18.6817    8.6149   22.7962    H 1 <0>  0.3999
  32  H12       14.2407    1.0659   27.3969    H 1 <0>  0.3999
@<TRIPOS>BOND
    1     1     2  1
    2     1     3  1
    3     2    11  1
    4     3    10  1
    5     3    12  1
    6     4    10  1
    7     4    11  1
    8     4    15  1
    9     5     6  1
   10     5     8  1
   11     6     7  1
   12     6    18  1
   13     7     9  1
   14     7    17  1
   15     8    11  1
   16     8    17  1
   17     9    19  1
   18    13    20  1
   19    14    20  1
   20    16    20  1
   21    19    20  1
   22     1    21  1
   23     2    22  1
   24     5    23  1
   25     5    24  1
   26     6    25  1
   27     7    26  1
   28     8    27  1
   29     9    28  1
   30     9    29  1
   31    12    30  1
   32    12    31  1
   33    18    32  1

@<TRIPOS>MOLECULE
MOL
   32   33    0    0    0
SMALL
USER_CHARGES


@<TRIPOS>ATOM
   1   C1       18.8934    5.5819   24.1747  C.2 1 <0> -0.1356
   2   C2       18.1301    4.7642   24.8969  C.2 1 <0> -0.0410
   3   C3       18.2645    6.8544   23.7342  C.2 1 <0>  0.4856
   4   C4       16.2520    6.2866   24.7933  C.2 1 <0>  0.8408
   5   C5       15.3820    3.0682   25.1622  C.3 1 <0>  0.0000
   6   C6       15.4162    1.8505   26.0566  C.3 1 <0>  0.2800
   7   C7       16.7283    2.0138   26.8111  C.3 1 <0>  0.2800
   8   C8       16.0764    4.1199   26.0119  C.3 1 <0>  0.5801
   9   C9       17.9106    1.3823   26.0876  C.3 1 <0>  0.2800
  10   N1       17.0289    7.1510   24.0411  N.2 1 <0> -0.6611
  11   N2       16.8196    5.0644   25.2302 N.am 1 <0> -0.4690
  12   N3       19.0194    7.7275   22.9859 N.pl3 1 <0> -0.8501
  13   O1       18.7676   -2.3524   26.1510  O.3 1 <0> -1.0332
  14   O2       20.3972   -0.3812   26.2318  O.3 1 <0> -1.0332
  15   O3       15.0888    6.5824   25.0727  O.2 1 <0> -0.5698
  16   O4       18.9314   -0.7527   24.1606  O.2 1 <0> -1.0332
  17   O5       16.9690    3.4315   26.8994  O.3 1 <0> -0.5601
  18   O6       14.3223    1.8946   26.9702  O.3 1 <0> -0.6802
  19   O7       17.9091   -0.0135   26.3390  O.3 1 <0> -0.5513
  20   P1       19.0969   -0.9440   25.6653  P.3 1 <0>  1.3711
  21   H1       19.9176    5.3550   23.9105    H 1 <0>  0.1500
  22   H2       18.5100    3.8155   25.2595    H 1 <0>  0.1500
  23   H3       15.8520    2.8983   24.1870    H 1 <0>  0.0000
  24   H4       14.3405    3.3601   24.9711    H 1 <0>  0.0000
  25   H5       15.3663    0.9351   25.4839    H 1 <0>  0.0000
  26   H6       16.6681    1.6130   27.8171    H 1 <0>  0.0000
  27   H7       15.3483    4.6961   26.6094    H 1 <0>  0.0000
  28   H8       18.8490    1.8078   26.4511    H 1 <0>  0.0000
  29   H9       17.8303    1.5497   25.0110    H 1 <0>  0.0000
  30  H10       19.9527    7.4708   22.7715    H 1 <0>  0.3999
  31  H11       18.5977    8.5756   22.6932    H 1 <0>  0.3999
  32  H12       14.2530    1.0535   27.4278    H 1 <0>  0.3999
@<TRIPOS>BOND
    1     1     2  1
    2     1     3  1
    3     2    11  1
    4     3    10  1
    5     3    12  1
    6     4    10  1
    7     4    11  1
    8     4    15  1
    9     5     6  1
   10     5     8  1
   11     6     7  1
   12     6    18  1
   13     7     9  1
   14     7    17  1
   15     8    11  1
   16     8    17  1
   17     9    19  1
   18    13    20  1
   19    14    20  1
   20    16    20  1
   21    19    20  1
   22     1    21  1
   23     2    22  1
   24     5    23  1
   25     5    24  1
   26     6    25  1
   27     7    26  1
   28     8    27  1
   29     9    28  1
   30     9    29  1
   31    12    30  1
   32    12    31  1
   33    18    32  1

