@<TRIPOS>MOLECULE
ZINC38611810
   65    68     0     0     0
SMALL
NO_CHARGES

@<TRIPOS>ATOM
      1 C1         -1.1786    2.7011   -4.0323 C.3       1 <0>        -0.1537
      2 C2         -1.2950    1.2442   -3.5798 C.3       1 <0>        -0.1156
      3 C3         -0.1742    0.4209   -4.2178 C.3       1 <0>        -0.1141
      4 C4         -0.2887   -1.0141   -3.7721 C.2       1 <0>         0.4504
      5 O1         -1.1758   -1.3445   -3.0212 O.2       1 <0>        -0.4896
      6 O2          0.5947   -1.9252   -4.2093 O.3       1 <0>        -0.3331
      7 C5          0.4922   -3.2421   -3.6639 C.3       1 <0>         0.0953
      8 C6          0.6518   -3.1990   -2.1236 C.3       1 <0>        -0.1301
      9 C7          1.9520   -3.9828   -1.7960 C.3       1 <0>        -0.1145
     10 C8          2.7492   -3.8860   -3.1015 C.3       1 <0>        -0.0828
     11 H1          3.1821   -2.8914   -3.2086 H         1 <0>         0.0930
     12 C9          1.6407   -4.1122   -4.1643 C.3       1 <0>        -0.0413
     13 C10         2.2305   -3.7435   -5.5120 C.3       1 <0>        -0.1321
     14 C11         3.3615   -4.7432   -5.8011 C.3       1 <0>         0.0903
     15 H2          3.8310   -4.4843   -6.7501 H         1 <0>         0.0772
     16 C12         4.4197   -4.7296   -4.7021 C.3       1 <0>         0.1558
     17 C13         3.8135   -4.9488   -3.3057 C.3       1 <0>        -0.0971
     18 H3          3.3582   -5.9383   -3.2630 H         1 <0>         0.1168
     19 C14         4.8969   -4.8121   -2.2341 C.3       1 <0>        -0.1403
     20 C15         5.9488   -5.9101   -2.4203 C.3       1 <0>         0.1253
     21 H4          5.4949   -6.8868   -2.2525 H         1 <0>         0.1075
     22 C16         6.4727   -5.8263   -3.8416 C.2       1 <0>        -0.0811
     23 C17         7.7821   -5.7721   -4.0419 C.2       1 <0>        -0.1937
     24 C18         8.3268   -5.6695   -5.4046 C.2       1 <0>         0.4079
     25 O3          9.5286   -5.6592   -5.5952 O.2       1 <0>        -0.4464
     26 C19         7.3846   -5.5801   -6.5329 C.2       1 <0>        -0.2031
     27 C20         6.0812   -5.6432   -6.3100 C.2       1 <0>        -0.0716
     28 C21         5.4488   -5.8302   -4.9762 C.3       1 <0>        -0.0193
     29 C22         4.7086   -7.1692   -4.9823 C.3       1 <0>        -0.1384
     30 F1          6.9991   -5.7161   -1.5167 F         1 <0>        -0.1967
     31 F2          5.0640   -3.4878   -4.6987 F         1 <0>        -0.1882
     32 O4          2.8087   -6.0574   -5.8979 O.3       1 <0>        -0.5408
     33 C23         1.2153   -5.5819   -4.1654 C.3       1 <0>        -0.1684
     34 C24        -0.8312   -3.8592   -4.0366 C.2       1 <0>         0.3553
     35 O5         -1.3626   -4.6452   -3.2895 O.2       1 <0>        -0.4036
     36 C25        -1.4915   -3.4953   -5.3414 C.3       1 <0>         0.0324
     37 O6         -2.7770   -4.1152   -5.4140 O.3       1 <0>        -0.5490
     38 H5         -0.2129    3.1014   -3.7237 H         1 <0>         0.0580
     39 H6         -1.2630    2.7522   -5.1179 H         1 <0>         0.0575
     40 H7         -1.9771    3.2875   -3.5778 H         1 <0>         0.0626
     41 H8         -1.2106    1.1930   -2.4943 H         1 <0>         0.0729
     42 H9         -2.2607    0.8438   -3.8885 H         1 <0>         0.0720
     43 H10        -0.2585    0.4721   -5.3033 H         1 <0>         0.1073
     44 H11         0.7915    0.8212   -3.9092 H         1 <0>         0.1093
     45 H12         0.7421   -2.1667   -1.7856 H         1 <0>         0.0789
     46 H13        -0.2034   -3.6764   -1.6454 H         1 <0>         0.0944
     47 H14         2.4929   -3.5077   -0.9777 H         1 <0>         0.0789
     48 H15         1.7261   -5.0223   -1.5583 H         1 <0>         0.0796
     49 H16         1.4649   -3.8154   -6.2845 H         1 <0>         0.0786
     50 H17         2.6304   -2.7301   -5.4775 H         1 <0>         0.0940
     51 H18         5.3727   -3.8354   -2.3219 H         1 <0>         0.0892
     52 H19         4.4446   -4.9069   -1.2469 H         1 <0>         0.0944
     53 H20         8.4547   -5.8032   -3.1974 H         1 <0>         0.1484
     54 H21         7.7562   -5.4630   -7.5401 H         1 <0>         0.1445
     55 H22         5.4177   -5.5673   -7.1588 H         1 <0>         0.1286
     56 H23         4.1951   -7.2961   -5.9354 H         1 <0>         0.1049
     57 H24         5.4236   -7.9803   -4.8440 H         1 <0>         0.0583
     58 H25         3.9798   -7.1852   -4.1720 H         1 <0>         0.0751
     59 H26         2.1494   -6.1561   -6.5984 H         1 <0>         0.3800
     60 H27         0.5817   -5.7761   -5.0308 H         1 <0>         0.0561
     61 H28         2.1004   -6.2163   -4.2135 H         1 <0>         0.1143
     62 H29         0.6608   -5.8004   -3.2528 H         1 <0>         0.0612
     63 H30        -1.6061   -2.4130   -5.4012 H         1 <0>         0.0712
     64 H31        -0.8738   -3.8416   -6.1701 H         1 <0>         0.0812
     65 H32        -3.2603   -3.9241   -6.2294 H         1 <0>         0.3864
@<TRIPOS>BOND
     1    1    2 1
     2    1   38 1
     3    1   39 1
     4    1   40 1
     5    2    3 1
     6    2   41 1
     7    2   42 1
     8    3    4 1
     9    3   43 1
    10    3   44 1
    11    4    5 2
    12    4    6 1
    13    6    7 1
    14    7   12 1
    15    7    8 1
    16    7   34 1
    17    8    9 1
    18    8   45 1
    19    8   46 1
    20    9   10 1
    21    9   47 1
    22    9   48 1
    23   10   11 1
    24   10   17 1
    25   10   12 1
    26   12   13 1
    27   12   33 1
    28   13   14 1
    29   13   49 1
    30   13   50 1
    31   14   15 1
    32   14   16 1
    33   14   32 1
    34   16   28 1
    35   16   17 1
    36   16   31 1
    37   17   18 1
    38   17   19 1
    39   19   20 1
    40   19   51 1
    41   19   52 1
    42   20   21 1
    43   20   22 1
    44   20   30 1
    45   22   28 1
    46   22   23 2
    47   23   24 1
    48   23   53 1
    49   24   25 2
    50   24   26 1
    51   26   27 2
    52   26   54 1
    53   27   28 1
    54   27   55 1
    55   28   29 1
    56   29   56 1
    57   29   57 1
    58   29   58 1
    59   32   59 1
    60   33   60 1
    61   33   61 1
    62   33   62 1
    63   34   35 2
    64   34   36 1
    65   36   37 1
    66   36   63 1
    67   36   64 1
    68   37   65 1

