@<TRIPOS>MOLECULE
MOL
   23   22    1    0    0
SMALL
bcc


@<TRIPOS>ATOM
   1    C        0.1860   -1.9680   -0.8620   c3 0 MOL -0.0931
   2   C1        1.1770   -0.8590   -0.4350   c3 0 MOL -0.0804
   3   C2        1.4010    0.2030   -1.5520   c3 0 MOL -0.0764
   4   C3        0.1792    0.5025   -2.4895   c3 0 MOL -0.0657
   5   C4        0.5100    1.5798   -3.5622   c3 0 MOL -0.0901
   6   C5       -1.0877    0.9579   -1.6867   c3 0 MOL -0.0784
   7   C6       -2.3339    1.3138   -2.5316   c3 0 MOL -0.0921
   8    H        0.0650   -2.6880   -0.0500   hc 0 MOL  0.0320
   9   H1        0.5570   -2.4960   -1.7430   hc 0 MOL  0.0320
  10   H2       -0.7890   -1.5340   -1.0930   hc 0 MOL  0.0320
  11   H3        0.7810   -0.3860    0.4670   hc 0 MOL  0.0382
  12   H4        2.1340   -1.3250   -0.1820   hc 0 MOL  0.0382
  13   H5        1.6835    1.1263   -1.0422   hc 0 MOL  0.0402
  14   H6        2.2514   -0.1099   -2.1643   hc 0 MOL  0.0402
  15   H7       -0.0746   -0.4190   -3.0227   hc 0 MOL  0.0477
  16   H8       -0.3695    1.8054   -4.1678   hc 0 MOL  0.0327
  17   H9        1.2894    1.2316   -4.2417   hc 0 MOL  0.0327
  18  H10        0.8448    2.5056   -3.0888   hc 0 MOL  0.0327
  19  H11       -0.8363    1.8547   -1.1124   hc 0 MOL  0.0392
  20  H12       -1.3690    0.1776   -0.9716   hc 0 MOL  0.0392
  21  H13       -3.1035    1.7372   -1.8857   hc 0 MOL  0.0327
  22  H14       -2.7508    0.4253   -3.0082   hc 0 MOL  0.0327
  23  H15       -2.0836    2.0486   -3.2980   hc 0 MOL  0.0327
@<TRIPOS>BOND
    1     1     2  1
    2     1     8  1
    3     1     9  1
    4     1    10  1
    5     2     3  1
    6     2    11  1
    7     2    12  1
    8     3     4  1
    9     3    13  1
   10     3    14  1
   11     4     5  1
   12     4     6  1
   13     4    15  1
   14     5    16  1
   15     5    17  1
   16     5    18  1
   17     6     7  1
   18     6    19  1
   19     6    20  1
   20     7    21  1
   21     7    22  1
   22     7    23  1
@<TRIPOS>SUBSTRUCTURE
1 MOL         1 TEMP              0 ****  ****    0 ROOT
