@<TRIPOS>MOLECULE
MOL
   23   22    1    0    0
SMALL
bcc


@<TRIPOS>ATOM
   1    C        0.1860   -1.9680   -0.8620   c3 0 MOL -0.0931
   2   C1        1.1770   -0.8590   -0.4350   c3 0 MOL -0.0804
   3   C2        1.4010    0.2030   -1.5520   c3 0 MOL -0.0764
   4   C3        0.1792    0.5025   -2.4895   c3 0 MOL -0.0657
   5   C4       -0.2941   -0.7620   -3.2625   c3 0 MOL -0.0901
   6   C5        0.4874    1.6420   -3.5209   c3 0 MOL -0.0784
   7   C6        0.8218    3.0278   -2.9201   c3 0 MOL -0.0921
   8    H        0.0650   -2.6880   -0.0500   hc 0 MOL  0.0320
   9   H1        0.5570   -2.4960   -1.7430   hc 0 MOL  0.0320
  10   H2       -0.7890   -1.5340   -1.0930   hc 0 MOL  0.0320
  11   H3        0.7810   -0.3860    0.4670   hc 0 MOL  0.0382
  12   H4        2.1340   -1.3250   -0.1820   hc 0 MOL  0.0382
  13   H5        1.6835    1.1263   -1.0422   hc 0 MOL  0.0402
  14   H6        2.2514   -0.1099   -2.1643   hc 0 MOL  0.0402
  15   H7       -0.6565    0.8325   -1.8646   hc 0 MOL  0.0477
  16   H8       -1.1109   -0.5160   -3.9432   hc 0 MOL  0.0327
  17   H9       -0.6641   -1.5262   -2.5771   hc 0 MOL  0.0327
  18  H10        0.5244   -1.1839   -3.8500   hc 0 MOL  0.0327
  19  H11       -0.3895    1.7846   -4.1596   hc 0 MOL  0.0392
  20  H12        1.3182    1.3378   -4.1663   hc 0 MOL  0.0392
  21  H13        0.8892    3.7654   -3.7201   hc 0 MOL  0.0327
  22  H14        1.7822    3.0090   -2.4027   hc 0 MOL  0.0327
  23  H15        0.0445    3.3442   -2.2232   hc 0 MOL  0.0327
@<TRIPOS>BOND
    1     1     2  1
    2     1     8  1
    3     1     9  1
    4     1    10  1
    5     2     3  1
    6     2    11  1
    7     2    12  1
    8     3     4  1
    9     3    13  1
   10     3    14  1
   11     4     5  1
   12     4     6  1
   13     4    15  1
   14     5    16  1
   15     5    17  1
   16     5    18  1
   17     6     7  1
   18     6    19  1
   19     6    20  1
   20     7    21  1
   21     7    22  1
   22     7    23  1
@<TRIPOS>SUBSTRUCTURE
1 MOL         1 TEMP              0 ****  ****    0 ROOT
